Using: /programs/synopsys/hspice_vK-2015.06/hspice/linux64/hspice prjMagics.sp
 lic: total license checkout elapse time:        0.00(s)
