Using: /programs/synopsys/hspice_vK-2015.06/hspice/linux64/hspice prjMagic.sp
 ****** HSPICE -- K-2015.06 linux64 (May 25 2015) ******                        
  Copyright (c) 1986 - 2015 by Synopsys, Inc. All Rights Reserved.              
  This software and the associated documentation are proprietary
  to Synopsys, Inc. This software may only be used in accordance
  with the terms and conditions of a written license agreement with
  Synopsys, Inc. All other use, reproduction, or distribution of
  this software is strictly prohibited.
  Input File: prjMagic.sp                                                       
  Command line options: /programs/synopsys/hspice_vK-2015.06/hspice/linux64/hspice prjMagic.sp
 lic:  
 lic: FLEXlm: v11.2.1 
 lic: USER:   nathahl              HOSTNAME: combe.ecen.okstate.edu 
 lic: HOSTID: "40a8f028beec"       PID:      34041 
 lic: Using FLEXlm license file: 
 lic: 27020@avatar.ecen.okstate.edu 
 lic: Checkout 1 hspice 
 lic: License/Maintenance for hspice will expire on 27-jan-2016/2014.09 
 lic: 3(in_use)/50(total) FLOATING license(s) on SERVER 27020@avatar.ecen.okstate.edu 
 lic:   
 Init: read install configuration file: /programs/synopsys/hspice_vK-2015.06/hspice/meta.cfg
1****** HSPICE -- K-2015.06 linux64 (May 25 2015) ******                        
 ******  
 *********************************************************

 ****** mos   model parameters tnom=  25.000 temp=  25.000 ******
 ***************************************************************************
 ***        model parameters  model name:   0:cmosntt  model type:nmos   ***
 ***************************************************************************

   *** general parameters ***
    deriv=   0.           

   ***  level 49  model parameters  ***

      hspver=    2006.03               level=         49         
     version=        3.1            paramchk=          0         
      apwarn=          1                lite=          0         
      vgslim=          0             binUnit=          1         
      capMod=          2               xpart=        0.5         
      mobMod=          1              nqsMod=          0         
      stiMod=          0                 elm=          5         
    sfvtflag=          0                 tox=   1.39e-08 meter   
          xj=    1.5e-07 meter       binflag=          0         
        lmin=          0 meter          lmax=          0 meter   
        wmin=          0 meter          wmax=          0 meter   
        lref=          0 meter          wref=          0 meter   
        lint=3.59761e-08 meter          wint=2.47235e-07 meter   
       lmult=          1               wmult=          1         
          ll=          0                 lln=          1         
          lw=          0                 lwn=          1         
         lwl=          0                  wl=          0         
         wln=          1                  ww=          0         
         wwn=          1                 wwl=          0         
         dwg=-1.28716e-08 m/V             dwb=5.30659e-08 m/V^1/2 
          xl=          0                  xw=          0         
          a0=   0.610354                 ags=   0.119461 V^-1    
          b0=2.67476e-06 meter            b1=      5e-06 meter   
        keta=-0.00264068 V^-1           voff=          0 V       
       ngate=          0 cm^-3           vbx=          0 V       
         vbm=         -3 V                xt=   1.55e-07 meter   
        vth0=   0.669606 V               nch=    1.7e+17 cm^-3   
        nsub=      6e+16 cm^-3           nlx=      1e-09 meter   
      gamma1=          0 V^-1/2       gamma2=          0 V^-1/2  
          k1=   0.835161 V^1/2            k2= -0.0839158         
          k3=    23.1024                 k3b=   -7.68411 V^-1    
          w0=      1e-08 meter          dvt0=    2.90472         
        dvt1=   0.430269                dvt2=  -0.134857 V^-1    
       dvt0w=          0 meter^-1      dvt1w=          0 meter^-1
       dvt2w=          0 V^-1           dsub=   0.254346         
        eta0=  0.0246738                etab=-0.00140612 V^-1    
          u0=     458.44 cm^2/V/sec         ua=      1e-13 m/V     
          ub= 1.4855e-18 (m/V)^2          uc=1.62994e-11 V^-1    
        vsat=     164399 m/sec            a1=8.21959e-05 v^-1    
          a2=   0.356479               delta=       0.01 V       
        rdsw=    1387.11 ohm-um         prwg=  0.0299916 V^-1    
        prwb=  0.0363981 V^-1/2           wr=          1         
        pclm=    2.59452             pdiblc1=  -0.428234         
     pdiblc2= 0.00231174             pdiblcb= -0.0272914 V^-1    
      pscbe1=5.59862e+08 V/m          pscbe2=5.46165e-05 V/m     
       drout=   0.728357                pvag=          0         
     nfactor=   0.836558                cdsc=    0.00024 f/m^2   
       cdscb=          0 f/V/m^2       cdscd=          0 f/V/m^2 
         cit=          0 f/m^2        alpha0=          0 m/V     
       beta0=         30 V               dlc=3.59761e-08 meter   
         dwc=2.47235e-07 meter           clc=      1e-07 meter   
         cle=        0.6                cgso=      2e-10 f/m     
        cgdo=      2e-10 f/m            cgbo=      1e-09 f/m     
        cgsl=          0 f/m            cgdl=          0 f/m     
      ckappa=        0.6                  cf=          0 f/m     
        tnom=     300.15 K               kt1=    -0.2501 V       
        kt1l=  -2.58e-09                 kt2=          0         
         ute=         -1                 ua1=    5.4e-10 m/V     
         ub1=   -4.8e-19 (m/V)^2         uc1=   -7.5e-11 m/V^2   
          at=     100000 m/s             prt=      8.621         
         using Berkeley noise model       noiMod=          1         
        noia=      1e+20                noib=      50000         
        noic=   -1.4e-12                  em=    4.1e+07         
          ef=          1                  af=          1         
          kf=          0              gdsnoi=-1.23457e-29         
         using Hspice diodes            using ACM 
         acm=         0                 hdif=         0 meter    
        ldif=         0 meter             js=         0 amp/m^2  
         jsw=         0 amp/m            xti=         0          
           n=         1                   cj=0.000419777 f/m^2    
          mj=  0.451504                   pb=      0.99 V        
        cjsw=3.24272e-10 f/m             mjsw=  0.115399          
         php=      0.99 V               pbsw (not used)           
      cjgate=3.24272e-10 f/m            cjswg (not used)           
       mjswg (not used)                 pbswg (not used)           
       lketa= 0.00117319               wketa= -0.0248758         
       pvth0=  0.0585501                 pk2= -0.0299638         
       prdsw=    133.286         
 ***************************************************************************
 ***        model parameters  model name:   0:cmosptt  model type:pmos   ***
 ***************************************************************************

   *** general parameters ***
    deriv=   0.           

   ***  level 49  model parameters  ***

      hspver=    2006.03               level=         49         
     version=        3.1            paramchk=          0         
      apwarn=          1                lite=          0         
      vgslim=          0             binUnit=          1         
      capMod=          2               xpart=        0.5         
      mobMod=          1              nqsMod=          0         
      stiMod=          0                 elm=          5         
    sfvtflag=          0                 tox=   1.39e-08 meter   
          xj=    1.5e-07 meter       binflag=          0         
        lmin=          0 meter          lmax=          0 meter   
        wmin=          0 meter          wmax=          0 meter   
        lref=          0 meter          wref=          0 meter   
        lint=5.52881e-08 meter          wint=2.83804e-07 meter   
       lmult=          1               wmult=          1         
          ll=          0                 lln=          1         
          lw=          0                 lwn=          1         
         lwl=          0                  wl=          0         
         wln=          1                  ww=          0         
         wwn=          1                 wwl=          0         
         dwg=-1.60638e-08 m/V             dwb=2.26639e-08 m/V^1/2 
          xl=          0                  xw=          0         
          a0=   0.843002                 ags=   0.132861 V^-1    
          b0=7.11791e-07 meter            b1=      5e-06 meter   
        keta=-0.00367486 V^-1           voff= -0.0558512 V       
       ngate=          0 cm^-3           vbx=          0 V       
         vbm=         -3 V                xt=   1.55e-07 meter   
        vth0=  -0.921435 V               nch=    1.7e+17 cm^-3   
        nsub=      6e+16 cm^-3           nlx=  2.594e-08 meter   
      gamma1=          0 V^-1/2       gamma2=          0 V^-1/2  
          k1=   0.555372 V^1/2            k2= 0.00876333         
          k3=    6.30636                 k3b=  -0.648736 V^-1    
          w0= 1.2807e-08 meter          dvt0=    2.51312         
        dvt1=   0.548054                dvt2=  -0.118649 V^-1    
       dvt0w=          0 meter^-1      dvt1w=          0 meter^-1
       dvt2w=          0 V^-1           dsub=          1         
        eta0=   0.325188                etab= -0.0580325 V^-1    
          u0=    212.017 cm^2/V/sec         ua=2.80712e-09 m/V     
          ub=      1e-21 (m/V)^2          uc=-5.82128e-11 V^-1    
        vsat=     171360 m/sec            a1=4.77502e-05 v^-1    
          a2=        0.3               delta=       0.01 V       
        rdsw=    2837.21 ohm-um         prwg= -0.0363908 V^-1    
        prwb=-1.01672e-05 V^-1/2           wr=          1         
        pclm=    2.24096             pdiblc1=  0.0411445         
     pdiblc2= 0.00335557             pdiblcb= -0.0551797 V^-1    
      pscbe1=6.44809e+09 V/m          pscbe2=6.30085e-10 V/m     
       drout=    0.20369                pvag=          0         
     nfactor=   0.934249                cdsc=    0.00024 f/m^2   
       cdscb=          0 f/V/m^2       cdscd=          0 f/V/m^2 
         cit=          0 f/m^2        alpha0=          0 m/V     
       beta0=         30 V               dlc=5.52881e-08 meter   
         dwc=2.83804e-07 meter           clc=      1e-07 meter   
         cle=        0.6                cgso=    2.9e-10 f/m     
        cgdo=    2.9e-10 f/m            cgbo=      1e-09 f/m     
        cgsl=          0 f/m            cgdl=          0 f/m     
      ckappa=        0.6                  cf=          0 f/m     
        tnom=     300.15 K               kt1=    -0.2942 V       
        kt1l=   1.68e-09                 kt2=          0         
         ute=         -1                 ua1=    4.5e-09 m/V     
         ub1=   -6.3e-18 (m/V)^2         uc1=     -1e-10 m/V^2   
          at=       1000 m/s             prt=     59.494         
         using Berkeley noise model       noiMod=          1         
        noia=    9.9e+18                noib=       2400         
        noic=    1.4e-12                  em=    4.1e+07         
          ef=          1                  af=          1         
          kf=          0              gdsnoi=-1.23457e-29         
         using Hspice diodes            using ACM 
         acm=         0                 hdif=         0 meter    
        ldif=         0 meter             js=         0 amp/m^2  
         jsw=         0 amp/m            xti=         0          
           n=         1                   cj=0.000723553 f/m^2    
          mj=  0.495529                   pb=  0.952735 V        
        cjsw=2.69279e-10 f/m             mjsw=  0.295839          
         php=  0.952735 V               pbsw (not used)           
      cjgate=2.69279e-10 f/m            cjswg (not used)           
       mjswg (not used)                 pbswg (not used)           
       lketa= -0.0042059               wketa= 0.00529216         
       pvth0= 0.00598016                 pk2= 0.00373981         
       prdsw=    14.8598         
  **info** (prjMagic.sp:16) DC voltage reset to initial transient source value              in source        0:va                  new dc=  0.0000D+00
  **warning** (prjMagic.sp:1476) Both nodes of element c201 are connected together; Line ignored.
 

 Warning: Pd = 0 is less than Weff = 5.50553e-06 in BSIM3 model    0:cmosntt element m1012 with W = 6e-06, L = 6e-07

  **warning** (prjMagic.sp:1914) Unable to find referenced node out; Output variable ignored. Specify a valid node.
  
      
 **info** set option symb=1 internally to help for convergence.
 *****************************************************************
 ******  option summary
 ******
 runlvl  = 3         bypass  = 2         
 ******
 *********************************************************

 ****** dc transfer curves tnom=  25.000 temp=  70.000 ******
 x

 volt         voltage    voltage   
             a0         out0       
    0.          0.         5.0000  
  100.00000m  100.0000m    5.0000  
  200.00000m  200.0000m    5.0000  
  300.00000m  300.0000m    5.0000  
  400.00000m  400.0000m    5.0000  
  500.00000m  500.0000m    5.0000  
  600.00000m  600.0000m    5.0000  
  700.00000m  700.0000m    5.0000  
  800.00000m  800.0000m    5.0000  
  900.00000m  900.0000m    5.0000  
    1.00000     1.0000     5.0000  
    1.10000     1.1000     5.0000  
    1.20000     1.2000     5.0000  
    1.30000     1.3000     5.0000  
    1.40000     1.4000     5.0000  
    1.50000     1.5000     5.0000  
    1.60000     1.6000     5.0000  
    1.70000     1.7000     5.0000  
    1.80000     1.8000     5.0000  
    1.90000     1.9000     5.0000  
    2.00000     2.0000     5.0000  
    2.10000     2.1000     5.0000  
    2.20000     2.2000     5.0000  
    2.30000     2.3000     5.0000  
    2.40000     2.4000     5.0000  
    2.50000     2.5000     5.0000  
    2.60000     2.6000     5.0000  
    2.70000     2.7000     5.0000  
    2.80000     2.8000     5.0000  
    2.90000     2.9000     5.0000  
    3.00000     3.0000     5.0000  
    3.10000     3.1000     5.0000  
    3.20000     3.2000     5.0000  
    3.30000     3.3000     5.0000  
    3.40000     3.4000     5.0000  
    3.50000     3.5000     5.0000  
    3.60000     3.6000     5.0000  
    3.70000     3.7000     5.0000  
    3.80000     3.8000     5.0000  
    3.90000     3.9000     5.0000  
    4.00000     4.0000     5.0000  
    4.10000     4.1000     5.0000  
    4.20000     4.2000     5.0000  
    4.30000     4.3000     5.0000  
    4.40000     4.4000     5.0000  
    4.50000     4.5000     5.0000  
    4.60000     4.6000     5.0000  
    4.70000     4.7000     5.0000  
    4.80000     4.8000     5.0000  
    4.90000     4.9000     5.0000  
    5.00000     5.0000     5.0000  
y
 **info** dc convergence successful at Newton-Raphson method 
1****** HSPICE -- K-2015.06 linux64 (May 25 2015) ******                        
 ******  
 *********************************************************

 ****** operating point information tnom=  25.000 temp=  70.000 ******
 ****** operating point status is all       simulation time is     0.     
    node    =voltage      node    =voltage      node    =voltage

 +0:a0      =   0.      0:a1      =   0.      0:a2      =   0.     
 +0:a3      =   0.      0:a4      =   0.      0:a5      =   0.     
 +0:a6      =   0.      0:a7      =   0.      0:b0      =   0.     
 +0:b1      =   0.      0:bitslice=   5.0000  0:bitslice=   5.0000 
 +0:bitslice=   5.0000  0:bitslice=   5.0000  0:bitslice=  12.7954n
 +0:bitslice=   5.0000  0:bitslice=  68.7971n 0:bitslice=   1.0340 
 +0:bitslice=   4.1900  0:bitslice=   1.2439  0:bitslice=  20.5727n
 +0:bitslice=  34.3985n 0:bitslice=  22.8429n 0:bitslice=   5.0000 
 +0:bitslice=   5.0000  0:bitslice=   5.0000  0:bitslice=   5.0000 
 +0:bitslice=   5.0000  0:bitslice=   5.0000  0:bitslice=   5.0000 
 +0:bitslice= 826.2692m 0:bitslice=   1.2439  0:bitslice=   4.1593 
 +0:bitslice=   1.3322  0:bitslice= 328.8009m 0:bitslice=   5.0000 
 +0:bitslice=  12.7954n 0:bitslice=   3.5796n 0:bitslice=   5.0000 
 +0:bitslice=  11.4215n 0:bitslice=   3.5796n 0:bitslice=   5.0000 
 +0:bitslice= 945.8377m 0:bitslice=   5.0000  0:bitslice=   5.0000 
 +0:bitslice=  15.5211n 0:bitslice=  13.8700n 0:bitslice=   5.0000 
 +0:bitslice=   5.0000  0:bitslice=   5.0000  0:bitslice=   5.0000 
 +0:bitslice=  12.7954n 0:bitslice=   5.0000  0:bitslice=  68.7971n
 +0:bitslice=   1.0340  0:bitslice=   4.1900  0:bitslice=   1.2439 
 +0:bitslice=  20.5727n 0:bitslice=  34.3985n 0:bitslice=  22.8429n
 +0:b2      =   0.      0:bitslice=   5.0000  0:bitslice=   5.0000 
 +0:bitslice=   5.0000  0:bitslice=   5.0000  0:bitslice=   5.0000 
 +0:bitslice=   5.0000  0:bitslice=   5.0000  0:bitslice= 826.2692m
 +0:bitslice=   1.2439  0:bitslice=   4.1593  0:bitslice=   1.3322 
 +0:bitslice= 328.8009m 0:bitslice=   5.0000  0:bitslice=  12.7954n
 +0:bitslice=   3.5796n 0:bitslice=   5.0000  0:bitslice=  11.4215n
 +0:bitslice=   3.5796n 0:bitslice=   5.0000  0:bitslice= 945.8377m
 +0:bitslice=   5.0000  0:bitslice=   5.0000  0:bitslice=  15.5211n
 +0:bitslice=  13.8700n 0:bitslice=   5.0000  0:bitslice=   5.0000 
 +0:bitslice=   5.0000  0:bitslice=   5.0000  0:bitslice=  12.7954n
 +0:bitslice=   5.0000  0:bitslice=  68.7971n 0:bitslice=   1.0340 
 +0:bitslice=   4.1900  0:bitslice=   1.2439  0:bitslice=  20.5727n
 +0:bitslice=   5.0000  0:bitslice=  34.3985n 0:bitslice=  22.8429n
 +0:bitslice=   5.0000  0:bitslice=   5.0000  0:bitslice=   5.0000 
 +0:bitslice=   5.0000  0:bitslice=   5.0000  0:bitslice=   5.0000 
 +0:bitslice=   5.0000  0:bitslice= 826.2692m 0:bitslice=   5.0000 
 +0:bitslice=   1.2439  0:bitslice=   4.1593  0:bitslice=   1.3322 
 +0:bitslice= 328.8009m 0:bitslice=   5.0000  0:b3      =   0.     
 +0:bitslice=  12.7954n 0:bitslice=   3.5796n 0:bitslice=   5.0000 
 +0:bitslice=  11.4215n 0:bitslice=   3.5796n 0:bitslice=   5.0000 
 +0:bitslice=   5.0000  0:bitslice= 945.8377m 0:bitslice=   5.0000 
 +0:bitslice=   5.0000  0:bitslice=  15.5211n 0:bitslice=  13.8700n
 +0:bitslice=   5.0000  0:bitslice=   5.0000  0:bitslice=   5.0000 
 +0:bitslice=   5.0000  0:bitslice=   5.0000  0:bitslice=  12.7954n
 +0:bitslice=   5.0000  0:bitslice=  68.7971n 0:bitslice=   1.0340 
 +0:bitslice=   4.1900  0:bitslice=   1.2439  0:bitslice=  20.5727n
 +0:bitslice=  34.3985n 0:bitslice=  22.8429n 0:bitslice=   5.0000 
 +0:bitslice=  12.7954n 0:bitslice=   5.0000  0:bitslice=   5.0000 
 +0:bitslice=   5.0000  0:bitslice=   5.0000  0:bitslice=   5.0000 
 +0:bitslice=   5.0000  0:bitslice= 826.2692m 0:bitslice=   1.2439 
 +0:bitslice=   4.1593  0:bitslice=   1.3322  0:bitslice=   5.0000 
 +0:bitslice= 328.8009m 0:bitslice=   5.0000  0:bitslice=  12.7954n
 +0:bitslice=   3.5796n 0:bitslice=   5.0000  0:bitslice=  11.4215n
 +0:bitslice=   3.5796n 0:bitslice=   5.0000  0:bitslice= 945.8377m
 +0:bitslice=   5.0000  0:bitslice=  68.7971n 0:bitslice=   5.0000 
 +0:bitslice=  15.5211n 0:bitslice=  13.8700n 0:bitslice=   5.0000 
 +0:bitslice=   5.0000  0:b4      =   0.      0:bitslice=   5.0000 
 +0:bitslice=   5.0000  0:bitslice=  12.7954n 0:bitslice=   5.0000 
 +0:bitslice=  68.7971n 0:bitslice=   1.0340  0:bitslice=   1.0340 
 +0:bitslice=   4.1900  0:bitslice=   1.2439  0:bitslice=  20.5727n
 +0:bitslice=  34.3985n 0:bitslice=  22.8429n 0:bitslice=   5.0000 
 +0:bitslice=   5.0000  0:bitslice=   5.0000  0:bitslice=   5.0000 
 +0:bitslice=   4.1900  0:bitslice=   5.0000  0:bitslice=   5.0000 
 +0:bitslice=   5.0000  0:bitslice= 826.2692m 0:bitslice=   1.2439 
 +0:bitslice=   4.1593  0:bitslice=   1.3322  0:bitslice= 328.8009m
 +0:bitslice=   5.0000  0:bitslice=  12.7954n 0:bitslice=   1.2439 
 +0:bitslice=   3.5796n 0:bitslice=   5.0000  0:bitslice=  11.4215n
 +0:bitslice=   3.5796n 0:bitslice=   5.0000  0:bitslice= 945.8377m
 +0:bitslice=   5.0000  0:bitslice=   5.0000  0:bitslice=  15.5211n
 +0:bitslice=  13.8700n 0:bitslice=  20.5727n 0:bitslice=   5.0000 
 +0:bitslice=   5.0000  0:bitslice=   5.0000  0:bitslice=   5.0000 
 +0:bitslice=  12.7954n 0:bitslice=   5.0000  0:bitslice=  68.7971n
 +0:bitslice=   1.0340  0:bitslice=   4.1900  0:bitslice=   1.2439 
 +0:bitslice=  34.3985n 0:bitslice=  20.5727n 0:bitslice=  34.3985n
 +0:bitslice=  22.8429n 0:bitslice=   5.0000  0:bitslice=   5.0000 
 +0:b5      =   0.      0:bitslice=   5.0000  0:bitslice=   5.0000 
 +0:bitslice=   5.0000  0:bitslice=   5.0000  0:bitslice=   5.0000 
 +0:bitslice=  22.8429n 0:bitslice= 826.2692m 0:bitslice=   1.2439 
 +0:bitslice=   4.1593  0:bitslice=   1.3322  0:bitslice= 328.8009m
 +0:bitslice=   5.0000  0:bitslice=  12.7954n 0:bitslice=   3.5796n
 +0:bitslice=   5.0000  0:bitslice=  11.4215n 0:bitslice=   5.0000 
 +0:bitslice=   3.5796n 0:bitslice=   5.0000  0:bitslice= 945.8377m
 +0:bitslice=   5.0000  0:bitslice=   5.0000  0:bitslice=  15.5211n
 +0:bitslice=  13.8700n 0:bitslice=   5.0000  0:bitslice=   5.0000 
 +0:bitslice=   5.0000  0:bitslice=   5.0000  0:bitslice=   5.0000 
 +0:bitslice=  12.7954n 0:bitslice=   5.0000  0:bitslice=  68.7971n
 +0:bitslice=   1.0340  0:bitslice=   4.1900  0:bitslice=   1.2439 
 +0:bitslice=  20.5727n 0:bitslice=  34.3985n 0:bitslice=  22.8429n
 +0:bitslice=   5.0000  0:bitslice=   5.0000  0:bitslice=   5.0000 
 +0:bitslice=   5.0000  0:bitslice=   5.0000  0:bitslice=   5.0000 
 +0:bitslice=   5.0000  0:bitslice=   5.0000  0:bitslice= 826.2692m
 +0:bitslice=   1.2439  0:bitslice=   4.1593  0:bitslice=   5.0000 
 +0:bitslice=   1.3322  0:bitslice= 328.8009m 0:bitslice=   5.0000 
 +0:bitslice=  12.7954n 0:bitslice=   3.5796n 0:b6      =   0.     
 +0:bitslice=   5.0000  0:bitslice=  11.4215n 0:bitslice=   3.5796n
 +0:bitslice=   5.0000  0:bitslice= 945.8377m 0:bitslice=   5.0000 
 +0:bitslice=   5.0000  0:bitslice=   5.0000  0:bitslice=  15.5211n
 +0:bitslice=  13.8700n 0:bitslice=   5.0000  0:bitslice=   5.0000 
 +0:bitslice= 826.2692m 0:bitslice=   1.2439  0:b7      =   0.     
 +0:bitslice=   4.1593  0:bitslice=   1.3322  0:bitslice= 328.8009m
 +0:bitslice=   5.0000  0:bitslice=  12.7954n 0:bitslice=   3.5796n
 +0:bitslice=   5.0000  0:bitslice=  11.4215n 0:bitslice=   3.5796n
 +0:bitslice=   5.0000  0:bitslice= 945.8377m 0:bitslice=   5.0000 
 +0:bitslice=   5.0000  0:bitslice=  15.5211n 0:bitslice=  13.8700n
 +0:bitslice=  12.7954n 0:bitslice=  31.0421n 0:bitslice=  12.7954n
 +0:bitslice=  12.7954n 0:bitslice=  31.0421n 0:bitslice=  12.7954n
 +0:bitslice=  12.7954n 0:bitslice=  31.0421n 0:bitslice=  12.7954n
 +0:bitslice=  12.7954n 0:bitslice=  31.0421n 0:bitslice=  12.7954n
 +0:bitslice=  12.7954n 0:bitslice=  31.0421n 0:bitslice=  12.7954n
 +0:bitslice=  12.7954n 0:bitslice=  31.0421n 0:bitslice=  12.7954n
 +0:bitslice=  12.7954n 0:bitslice=  31.0421n 0:bitslice=  12.7954n
 +0:bitslice=  31.0421n 0:clk     =   0.      0:cout    =  12.7954n
 +0:gundy   =  12.7954n 0:inverter=   5.0000  0:inverter=  12.7954n
 +0:loadb   =   5.0000  0:loadr   =   5.0000  0:nand_0/a=   3.5796n
 +0:out0    =   5.0000  0:out1    =   5.0000  0:out2    =   5.0000 
 +0:out3    =   5.0000  0:out4    =   5.0000  0:out5    =   5.0000 
 +0:out6    =   5.0000  0:out7    =   5.0000  0:subtract=   0.     
 +0:vdd     =   5.0000 


 maximum nodal capacitance=   8.584E-12         on node     0:vdd             

    nodal  capacitance table 

    node    =    cap      node    =    cap      node    =    cap

 +0:a0      =  40.8488f 0:a1      =  40.8488f 0:a2      =  40.8488f
 +0:a3      =  40.8488f 0:a4      =  40.8488f 0:a5      =  40.8488f
 +0:a6      =  40.8488f 0:a7      =  40.8488f 0:b0      =  15.7557f
 +0:b1      =  15.7557f 0:bitslice=  69.0581f 0:bitslice=  16.6464f
 +0:bitslice=  38.8249f 0:bitslice=  15.1875f 0:bitslice=  48.0323f
 +0:bitslice=  13.6773f 0:bitslice=  50.4386f 0:bitslice=   3.5895f
 +0:bitslice=   3.6404f 0:bitslice=   4.1113f 0:bitslice=   4.7127f
 +0:bitslice=   6.8417f 0:bitslice=  90.4868f 0:bitslice=  34.7892f
 +0:bitslice=  57.0740f 0:bitslice=  15.1362f 0:bitslice=  37.8748f
 +0:bitslice=  41.0094f 0:bitslice=  15.1362f 0:bitslice=  15.1362f
 +0:bitslice=  10.3682f 0:bitslice=   4.1113f 0:bitslice=   9.3427f
 +0:bitslice=   4.0867f 0:bitslice=   4.4803f 0:bitslice=  47.0720f
 +0:bitslice=  37.2270f 0:bitslice=  12.2061f 0:bitslice=  46.1339f
 +0:bitslice=  13.6879f 0:bitslice=  12.2061f 0:bitslice=  65.5729f
 +0:bitslice=  14.3903f 0:bitslice=  65.0911f 0:bitslice=  27.4361f
 +0:bitslice=  13.6879f 0:bitslice=   9.0355f 0:bitslice=  69.0581f
 +0:bitslice=  16.6464f 0:bitslice=  38.8249f 0:bitslice=  15.1875f
 +0:bitslice=  48.0323f 0:bitslice=  13.6773f 0:bitslice=  50.4386f
 +0:bitslice=   3.5895f 0:bitslice=   3.6404f 0:bitslice=   4.1113f
 +0:bitslice=   4.7127f 0:bitslice=   6.8417f 0:bitslice=  90.4868f
 +0:b2      =  15.7557f 0:bitslice=  34.7892f 0:bitslice=  57.0740f
 +0:bitslice=  15.1362f 0:bitslice=  37.8748f 0:bitslice=  41.0094f
 +0:bitslice=  15.1362f 0:bitslice=  15.1362f 0:bitslice=  10.3682f
 +0:bitslice=   4.1113f 0:bitslice=   9.3427f 0:bitslice=   4.0867f
 +0:bitslice=   4.4803f 0:bitslice=  47.0720f 0:bitslice=  37.2270f
 +0:bitslice=  12.2061f 0:bitslice=  46.1339f 0:bitslice=  13.6879f
 +0:bitslice=  12.2061f 0:bitslice=  65.5729f 0:bitslice=  14.3903f
 +0:bitslice=  65.0911f 0:bitslice=  27.4361f 0:bitslice=  13.6879f
 +0:bitslice=   9.0355f 0:bitslice=  69.0581f 0:bitslice=  16.6464f
 +0:bitslice=  38.8249f 0:bitslice=  15.1875f 0:bitslice=  48.0323f
 +0:bitslice=  13.6773f 0:bitslice=  50.4386f 0:bitslice=   3.5895f
 +0:bitslice=   3.6404f 0:bitslice=   4.1113f 0:bitslice=   4.7127f
 +0:bitslice=  69.0581f 0:bitslice=   6.8417f 0:bitslice=  90.4868f
 +0:bitslice=  34.7892f 0:bitslice=  57.0740f 0:bitslice=  15.1362f
 +0:bitslice=  37.8748f 0:bitslice=  41.0094f 0:bitslice=  15.1362f
 +0:bitslice=  15.1362f 0:bitslice=  10.3682f 0:bitslice=  16.6464f
 +0:bitslice=   4.1113f 0:bitslice=   9.3427f 0:bitslice=   4.0867f
 +0:bitslice=   4.4803f 0:bitslice=  47.0720f 0:b3      =  15.7557f
 +0:bitslice=  37.2270f 0:bitslice=  12.2061f 0:bitslice=  46.1339f
 +0:bitslice=  13.6879f 0:bitslice=  12.2061f 0:bitslice=  38.8249f
 +0:bitslice=  65.5729f 0:bitslice=  14.3903f 0:bitslice=  65.0911f
 +0:bitslice=  27.4361f 0:bitslice=  13.6879f 0:bitslice=   9.0355f
 +0:bitslice=  69.0581f 0:bitslice=  16.6464f 0:bitslice=  38.8249f
 +0:bitslice=  15.1875f 0:bitslice=  15.1875f 0:bitslice=  48.0323f
 +0:bitslice=  13.6773f 0:bitslice=  50.4386f 0:bitslice=   3.5895f
 +0:bitslice=   3.6404f 0:bitslice=   4.1113f 0:bitslice=   4.7127f
 +0:bitslice=   6.8417f 0:bitslice=  90.4868f 0:bitslice=  34.7892f
 +0:bitslice=  48.0323f 0:bitslice=  57.0740f 0:bitslice=  15.1362f
 +0:bitslice=  37.8748f 0:bitslice=  41.0094f 0:bitslice=  15.1362f
 +0:bitslice=  15.1362f 0:bitslice=  10.3682f 0:bitslice=   4.1113f
 +0:bitslice=   9.3427f 0:bitslice=   4.0867f 0:bitslice=  13.6773f
 +0:bitslice=   4.4803f 0:bitslice=  47.0720f 0:bitslice=  37.2270f
 +0:bitslice=  12.2061f 0:bitslice=  46.1339f 0:bitslice=  13.6879f
 +0:bitslice=  12.2061f 0:bitslice=  65.5729f 0:bitslice=  14.3903f
 +0:bitslice=  65.0911f 0:bitslice=  50.4386f 0:bitslice=  27.4361f
 +0:bitslice=  13.6879f 0:bitslice=   9.0355f 0:bitslice=  69.0581f
 +0:bitslice=  16.6464f 0:b4      =  15.7557f 0:bitslice=  38.8249f
 +0:bitslice=  15.1875f 0:bitslice=  48.0323f 0:bitslice=  13.6773f
 +0:bitslice=  50.4386f 0:bitslice=   3.5895f 0:bitslice=   3.5895f
 +0:bitslice=   3.6404f 0:bitslice=   4.1113f 0:bitslice=   4.7127f
 +0:bitslice=   6.8417f 0:bitslice=  90.4868f 0:bitslice=  34.7892f
 +0:bitslice=  57.0740f 0:bitslice=  15.1362f 0:bitslice=  37.8748f
 +0:bitslice=   3.6404f 0:bitslice=  41.0094f 0:bitslice=  15.1362f
 +0:bitslice=  15.1362f 0:bitslice=  10.3682f 0:bitslice=   4.1113f
 +0:bitslice=   9.3427f 0:bitslice=   4.0867f 0:bitslice=   4.4803f
 +0:bitslice=  47.0720f 0:bitslice=  37.2270f 0:bitslice=   4.1113f
 +0:bitslice=  12.2061f 0:bitslice=  46.1339f 0:bitslice=  13.6879f
 +0:bitslice=  12.2061f 0:bitslice=  65.5729f 0:bitslice=  14.3903f
 +0:bitslice=  65.0911f 0:bitslice=  27.4361f 0:bitslice=  13.6879f
 +0:bitslice=   9.0355f 0:bitslice=   4.7127f 0:bitslice=  69.0581f
 +0:bitslice=  16.6464f 0:bitslice=  38.8249f 0:bitslice=  15.1875f
 +0:bitslice=  48.0323f 0:bitslice=  13.6773f 0:bitslice=  50.4386f
 +0:bitslice=   3.5895f 0:bitslice=   3.6404f 0:bitslice=   4.1113f
 +0:bitslice=   6.8417f 0:bitslice=   4.7127f 0:bitslice=   6.8417f
 +0:bitslice=  90.4868f 0:bitslice=  34.7892f 0:bitslice=  57.0740f
 +0:b5      =  15.7557f 0:bitslice=  15.1362f 0:bitslice=  37.8748f
 +0:bitslice=  41.0094f 0:bitslice=  15.1362f 0:bitslice=  15.1362f
 +0:bitslice=  90.4868f 0:bitslice=  10.3682f 0:bitslice=   4.1113f
 +0:bitslice=   9.3427f 0:bitslice=   4.0867f 0:bitslice=   4.4803f
 +0:bitslice=  47.0720f 0:bitslice=  37.2270f 0:bitslice=  12.2061f
 +0:bitslice=  46.1339f 0:bitslice=  13.6879f 0:bitslice=  34.7892f
 +0:bitslice=  12.2061f 0:bitslice=  65.5729f 0:bitslice=  14.3903f
 +0:bitslice=  65.0911f 0:bitslice=  27.4361f 0:bitslice=  13.6879f
 +0:bitslice=   9.0355f 0:bitslice=  69.0581f 0:bitslice=  16.6464f
 +0:bitslice=  38.8249f 0:bitslice=  57.0740f 0:bitslice=  15.1875f
 +0:bitslice=  48.0323f 0:bitslice=  13.6773f 0:bitslice=  50.4386f
 +0:bitslice=   3.5895f 0:bitslice=   3.6404f 0:bitslice=   4.1113f
 +0:bitslice=   4.7127f 0:bitslice=   6.8417f 0:bitslice=  90.4868f
 +0:bitslice=  15.1362f 0:bitslice=  34.7892f 0:bitslice=  57.0740f
 +0:bitslice=  15.1362f 0:bitslice=  37.8748f 0:bitslice=  41.0094f
 +0:bitslice=  15.1362f 0:bitslice=  15.1362f 0:bitslice=  10.3682f
 +0:bitslice=   4.1113f 0:bitslice=   9.3427f 0:bitslice=  37.8748f
 +0:bitslice=   4.0867f 0:bitslice=   4.4803f 0:bitslice=  47.0720f
 +0:bitslice=  37.2270f 0:bitslice=  12.2061f 0:b6      =  15.7557f
 +0:bitslice=  46.1339f 0:bitslice=  13.6879f 0:bitslice=  12.2061f
 +0:bitslice=  65.5729f 0:bitslice=  14.3903f 0:bitslice=  41.0094f
 +0:bitslice=  65.0911f 0:bitslice=  27.4361f 0:bitslice=  13.6879f
 +0:bitslice=   9.0355f 0:bitslice=  15.1362f 0:bitslice=  15.1362f
 +0:bitslice=  10.3682f 0:bitslice=   4.1113f 0:b7      =  15.7557f
 +0:bitslice=   9.3427f 0:bitslice=   4.0867f 0:bitslice=   4.4803f
 +0:bitslice=  47.0720f 0:bitslice=  37.2270f 0:bitslice=  12.2061f
 +0:bitslice=  46.1339f 0:bitslice=  13.6879f 0:bitslice=  12.2061f
 +0:bitslice=  65.5729f 0:bitslice=  14.3903f 0:bitslice=  65.0911f
 +0:bitslice=  27.4361f 0:bitslice=  13.6879f 0:bitslice=   9.0355f
 +0:bitslice=  41.2978f 0:bitslice= 111.3059f 0:bitslice=  54.8065f
 +0:bitslice=  41.2978f 0:bitslice= 111.3059f 0:bitslice=  54.8065f
 +0:bitslice=  41.2978f 0:bitslice= 111.3059f 0:bitslice=  54.8065f
 +0:bitslice=  41.2978f 0:bitslice= 111.3059f 0:bitslice=  54.8065f
 +0:bitslice=  41.2978f 0:bitslice= 111.3059f 0:bitslice=  54.8065f
 +0:bitslice=  41.2978f 0:bitslice= 111.3059f 0:bitslice=  54.8065f
 +0:bitslice=  41.2978f 0:bitslice= 111.3059f 0:bitslice=  54.8065f
 +0:bitslice= 111.3059f 0:clk     =  15.7557f 0:cout    =  13.4702f
 +0:gundy   =  32.4198f 0:inverter=  44.1494f 0:inverter= 579.1744f
 +0:loadb   = 387.0844f 0:loadr   =  16.1218f 0:nand_0/a=  12.2061f
 +0:out0    = 148.1598f 0:out1    = 136.5790f 0:out2    = 128.4464f
 +0:out3    = 119.4830f 0:out4    = 110.9495f 0:out5    = 102.3387f
 +0:out6    =  93.9074f 0:out7    =  85.3035f 0:subtract= 580.0727f
 +0:vdd     =   8.5837p

 

 **** voltage sources

 subckt                                                                    
 element  0:va       0:vb       0:vc       0:vd       0:vdd      0:ve      
  volts      0.         0.         0.         0.         5.0000     0.     
  current    0.         0.         0.         0.        -2.1741n    0.     
  power      0.         0.         0.         0.        10.8706n    0.     

 subckt                                                                    
 element  0:vf       0:vg       0:vh       0:vi       0:vk       0:vl      
  volts      0.         0.         0.         0.         0.         0.     
  current    0.         0.         0.         0.         0.         0.     
  power      0.         0.         0.         0.         0.         0.     

 subckt                                                                    
 element  0:vm       0:vn       0:vo       0:vp       0:vq       0:vr      
  volts      0.         0.         0.         0.         0.         0.     
  current    0.         0.         0.         0.         0.         0.     
  power      0.         0.         0.         0.         0.         0.     

 subckt                                   
 element  0:vs       0:vt       0:vv      
  volts      0.         5.0000     5.0000 
  current    0.         0.         0.     
  power      0.         0.         0.     

     total voltage source power dissipation=   10.8706n       watts




 **** mosfets


 subckt                                                                    
 element  0:m1000    0:m1001    0:m1002    0:m1003    0:m1004    0:m1005   
 model    0:cmosptt  0:cmosntt  0:cmosptt  0:cmosptt  0:cmosptt  0:cmosptt 
 region       Cutoff     Linear     Linear     Linear     Linear     Cutoff
  id       -10.0468f   10.0100p   11.2745p  -26.3870p  -26.3870p  5.306e-21
  ibs        0.         0.         0.         0.         0.         0.     
  ibd        0.         0.         0.         0.         0.         0.     
  vgs      -17.0112n    5.0000    -5.0000    -5.0000    -5.0000    71.4859n
  vds       -5.0000    12.7954n    8.1412n  -39.8136n  -39.8136n   79.6272n
  vbs        0.         0.         8.1412n    0.        39.8136n   79.6272n
  vth     -831.5629m  699.7240m -849.8368m -855.7622m -855.7622m -855.7622m
  vdsat    -48.7748m    1.4215    -2.3353    -2.3271    -2.3271   -48.7798m
  vod      831.5628m    4.3003    -4.1502    -4.1442    -4.1442   855.7622m
  beta     365.2332u  388.6356u  474.7926u  228.3604u  228.3604u  362.3202u
  gam eff  536.7083m    1.0307   538.0631m  536.7083m  536.7083m  536.7083m
  gm       226.7837f  685.3921f    1.4186p    3.3758p    3.3758p  1.198e-19
  gds        2.4318f  782.3150u    1.3849m  662.7649u  662.7649u   66.6371f
  gmb       90.4978f  581.9399f  832.6365f    2.0108p    2.0108p  4.916e-20
  cdtot      6.5971f    6.8732f    6.4111f   13.6122f   16.6326f   10.9114f
  cgtot      6.1152f    4.8182f   21.0239f   10.2469f   10.2469f    6.1666f
  cstot      2.0873p  886.9659f   29.8321f    3.0343f    3.0343f    1.5754f
  cbtot      2.0938p  892.7304f   25.5637f   11.8239f   14.8443f   12.4540f
  cgs        1.4765f    1.6775f   10.1436f    4.6535f    4.6535f    1.5639f
  cgd        1.5641f    2.0893f    9.7725f    4.8198f    4.8198f    1.4847f



 subckt                                                                    
 element  0:m1006    0:m1007    0:m1008    0:m1009    0:m1010    0:m1011   
 model    0:cmosptt  0:cmosptt  0:cmosptt  0:cmosptt  0:cmosptt  0:cmosptt 
 region       Linear     Cutoff     Linear     Cutoff     Cutoff     Cutoff
  id       5.887e-19  -10.0468f   -5.0100p  -10.0468f   10.8664p    2.5048f
  ibs        0.         0.         0.         0.         0.         0.     
  ibd        0.         0.         0.         0.         0.         0.     
  vgs       -5.0000   -79.6272n   -5.0000  -581.9150p  -56.0017n    3.9660 
  vds      888.1784a   -5.0000    -7.5593n   -5.0000     1.0340     3.9660 
  vbs      888.1784a    0.         0.         7.5593n    5.0000     3.9660 
  vth     -855.7622m -831.5629m -855.7622m -831.5629m   -1.4206  -850.4233m
  vdsat     -2.3271   -48.7748m   -2.3271   -48.7748m  -56.5121m  -48.4458m
  vod       -4.1442   831.5628m   -4.1442   831.5629m    1.4206     4.8164 
  beta     228.3604u  365.2332u  228.3604u  365.2332u  129.4535u  162.5172u
  gam eff  536.7083m  536.7083m  536.7083m  536.7083m  503.1656m  533.5245m
  gm       7.531e-20  226.7840f  640.9530f  226.7836f  289.6796p   56.5399f
  gds      662.7649u    2.4318f  662.7649u    2.4318f    5.1740p  656.7989a
  gmb      4.486e-20   90.4979f  381.7785f   90.4978f   27.4976p   23.0108f
  cdtot      3.0343f    6.5971f   12.1019f    8.2091f    2.8841f  705.3938a
  cgtot     10.2469f    6.1152f   10.2469f    6.1152f    2.2447f    3.0262f
  cstot      4.2762f    1.5754f    3.0343f    1.5754f  705.3935a  705.3938a
  cbtot      2.4879f    8.0963f   10.3136f    9.7083f    3.0244f    1.6610f
  cgs        4.8198f    1.4765f    4.6535f    1.4765f  702.6225a  700.2725a
  cgd        4.6535f    1.5641f    4.8198f    1.5641f  696.4311a  664.9964a



 subckt                                                                    
 element  0:m1012    0:m1013    0:m1014    0:m1015    0:m1016    0:m1017   
 model    0:cmosntt  0:cmosptt  0:cmosntt  0:cmosntt  0:cmosntt  0:cmosntt 
 region       Cutoff     Linear     Cutoff     Cutoff     Cutoff     Cutoff
  id        -1.2745p  -11.2745p   60.8704f   11.8209p    0.       -24.5061f
  ibs        0.         0.         0.         0.         0.         0.     
  ibd        0.         0.         0.         0.         0.         0.     
  vgs       -5.0000    -5.0000    12.7954n  809.9831m   -5.0000    -1.2439 
  vds       -5.0000    -8.1412n    4.1900   809.9830m   -3.7561    -1.2439 
  vbs       -5.0000     0.         0.        -4.1900    -5.0000    -1.2439 
  vth      554.4367m -849.8368m  647.1732m    1.1768   896.2738m  684.1235m
  vdsat     43.6776m   -2.3353    42.2397m   52.3981m   47.5097m   42.2420m
  vod       -5.5544    -4.1502  -647.1732m -366.7854m   -5.8963    -1.9280 
  beta       1.0231m  474.7926u  463.6339u  424.9742u  447.5141u  462.7920u
  gam eff    1.0081   538.0631m    1.0307     1.3132     1.1430     1.0307 
  gm        29.6432p    1.4186p    1.4163p  316.3946p    0.       570.2361f
  gds      538.1447f    1.3849m   19.7437f    5.9284p    0.         8.1345f
  gmb       10.9960p  832.6366f  557.6372f   15.9385p    0.       229.2590f
  cdtot      1.1011f   29.8321f    3.1392f    4.3806f    3.6102f  501.1063a
  cgtot      5.5088f   21.0239f    2.8454f    2.0619f    2.7471f    2.8673f
  cstot      6.7565f    6.4111f  501.1065a  501.1682a  501.1061a  501.1061a
  cbtot      9.4210f   25.5637f    4.6886f    5.0105f    5.0363f    2.0730f
  cgs        1.0673f    9.7725f  309.7882a  437.9113a  485.2295a  484.8451a
  cgd      675.8304a   10.1436f  485.1066a  492.9768a  334.6526a  309.3903a



 subckt                                                                    
 element  0:m1018    0:m1019    0:m1020    0:m1021    0:m1022    0:m1023   
 model    0:cmosntt  0:cmosntt  0:cmosntt  0:cmosntt  0:cmosntt  0:cmosntt 
 region       Linear     Cutoff     Cutoff     Linear     Linear     Cutoff
  id        10.0100p  1.004e-20  2.353e-20  -26.9105p  -26.9105p    1.2745p
  ibs        0.         0.         0.         0.         0.         0.     
  ibd        0.         0.         0.         0.         0.         0.     
  vgs        5.0000    12.7954n   -7.7772n    5.0000     5.0000    68.7971n
  vds       12.7954n   20.5727n   48.2244n  -34.3985n  -34.3985n    5.0000 
  vbs        0.         0.       -20.5727n  -68.7971n  -34.3985n    0.     
  vth      699.7240m  699.7240m  699.7240m  699.7240m  699.7240m  554.4367m
  vdsat      1.4215    42.2430m   42.2430m    1.4215     1.4215    43.6776m
  vod        4.3003  -699.7240m -699.7240m    4.3003     4.3003  -554.4367m
  beta     388.6356u  462.4266u  462.4266u  388.6356u  388.6356u    1.0231m
  gam eff    1.0307     1.0307     1.0307     1.0307     1.0307     1.0081 
  gm       685.3921f  2.336e-19  5.476e-19    1.8426p    1.8426p   29.6432p
  gds      782.3150u  487.9823f  487.9816f  782.3150u  782.3150u  538.1454f
  gmb      581.9399f  9.616e-20  2.254e-19    1.5645p    1.5645p   10.9960p
  cdtot      6.8732f    4.2116f    7.1308f    4.8467f    1.1362f    6.7565f
  cgtot      4.8182f    2.8769f    2.8769f    4.8182f    4.8182f    5.5088f
  cstot      1.1362f  501.1061a  501.1061a    1.9950f    1.9950f    1.1011f
  cbtot      6.9007f    5.7934f    8.7126f    5.7330f    2.0225f    9.4210f
  cgs        1.6775f  309.2027a  309.2027a    2.0893f    2.0893f  675.8304a
  cgd        2.0893f  484.7309a  484.7309a    1.6775f    1.6775f    1.0673f



 subckt                                                                    
 element  0:m1024    0:m1025    0:m1026    0:m1027    0:m1028    0:m1029   
 model    0:cmosptt  0:cmosptt  0:cmosptt  0:cmosptt  0:cmosptt  0:cmosptt 
 region       Linear     Linear     Linear     Linear     Linear     Linear
  id         5.1228p   -5.1228p  -10.2456p    7.6842p    7.6842p    0.     
  ibs        0.         0.         0.         0.         0.         0.     
  ibd        0.         0.         0.         0.         0.         0.     
  vgs       -5.0000    -5.0000    -5.0000    -5.0000    -5.0000    -5.0000 
  vds        7.7295n   -7.7295n  -15.4589n   11.5942n   11.5942n    0.     
  vbs        7.7295n    0.         7.7295n   23.1884n   11.5942n    0.     
  vth     -855.7622m -855.7622m -855.7622m -855.7622m -855.7622m -855.7622m
  vdsat     -2.3271    -2.3271    -2.3271    -2.3271    -2.3271    -2.3271 
  vod       -4.1442    -4.1442    -4.1442    -4.1442    -4.1442    -4.1442 
  beta     228.3604u  228.3604u  228.3604u  228.3604u  228.3604u  228.3604u
  gam eff  536.7083m  536.7083m  536.7083m  536.7083m  536.7083m  536.7083m
  gm       655.3800f  655.3800f    1.3108p  983.0701f  983.0701f    0.     
  gds      662.7649u  662.7649u  662.7649u  662.7649u  662.7649u  662.7649u
  gmb      390.3718f  390.3718f  780.7436f  585.5577f  585.5577f    0.     
  cdtot      3.0343f    4.2762f   16.6326f   10.8601f    3.0343f   28.9890f
  cgtot     10.2469f   10.2469f   10.2469f   10.2469f   10.2469f   10.2469f
  cstot     27.4788f    3.0343f    3.0343f    4.2762f    4.2762f    3.0343f
  cbtot     25.6905f    2.4879f   14.8443f   10.3136f    2.4879f   27.2007f
  cgs        4.8198f    4.6535f    4.6535f    4.8198f    4.8198f    4.6535f
  cgd        4.6535f    4.8198f    4.8198f    4.6535f    4.6535f    4.8198f



 subckt                                                                    
 element  0:m1030    0:m1031    0:m1032    0:m1033    0:m1034    0:m1035   
 model    0:cmosptt  0:cmosptt  0:cmosptt  0:cmosptt  0:cmosptt  0:cmosptt 
 region       Linear     Linear     Cutoff     Linear     Linear     Linear
  id         0.         0.      -1.296e-20   42.9637p   42.9637p   42.9637p
  ibs        0.         0.         0.         0.         0.         0.     
  ibd        0.         0.         0.         0.         0.         0.     
  vgs       -5.0000    -5.0000   -23.1884n   -5.0000    -5.0000    -5.0000 
  vds        0.         0.      -194.4748n   64.8249n   64.8249n   64.8249n
  vbs        0.         0.         0.       194.4748n  129.6499n   64.8249n
  vth     -855.7622m -855.7622m -855.7622m -855.7622m -855.7622m -855.7622m
  vdsat     -2.3271    -2.3271   -48.7798m   -2.3271    -2.3271    -2.3271 
  vod       -4.1442    -4.1442   855.7621m   -4.1442    -4.1442    -4.1442 
  beta     228.3604u  228.3604u  362.3202u  228.3604u  228.3604u  228.3604u
  gam eff  536.7083m  536.7083m  536.7083m  536.7083m  536.7083m  536.7083m
  gm         0.         0.       2.925e-19    5.4965p    5.4965p    5.4965p
  gds      662.7649u  662.7649u   66.6370f  662.7649u  662.7649u  662.7649u
  gmb        0.         0.       1.201e-19    3.2739p    3.2739p    3.2739p
  cdtot      4.2762f    4.2762f   15.4420f   10.8601f   10.8601f    3.0343f
  cgtot     10.2469f   10.2469f    6.1666f   10.2469f   10.2469f   10.2469f
  cstot      3.0343f    3.0343f    1.5754f    4.2762f    4.2762f    4.2762f
  cbtot      2.4879f    2.4879f   16.9846f   10.3136f   10.3136f    2.4879f
  cgs        4.6535f    4.6535f    1.4847f    4.8198f    4.8198f    4.8198f
  cgd        4.8198f    4.8198f    1.5639f    4.6535f    4.6535f    4.6535f



 subckt                                                                    
 element  0:m1036    0:m1037    0:m1038    0:m1039    0:m1040    0:m1041   
 model    0:cmosptt  0:cmosptt  0:cmosntt  0:cmosntt  0:cmosntt  0:cmosntt 
 region       Cutoff     Cutoff     Cutoff     Cutoff     Cutoff     Cutoff
  id       -10.0468f  -10.0468f  -21.1922f   21.1922f  1.725e-25    0.     
  ibs        0.         0.         0.         0.         0.         0.     
  ibd        0.         0.         0.         0.         0.         0.     
  vgs     -194.4748n  -23.1884n -826.2692m   31.0421n -826.2692m   -5.0000 
  vds       -5.0000    -5.0000  -826.2692m  826.2692m    4.1737    -3.7561 
  vbs        0.         0.      -826.2692m    0.      -826.2692m   -5.0000 
  vth     -831.5629m -831.5629m  689.3610m  689.3610m  828.1898m  896.2738m
  vdsat    -48.7748m  -48.7748m   42.2423m   42.2423m   46.2683m   47.5097m
  vod      831.5627m  831.5628m   -1.5156  -689.3610m   -1.6545    -5.8963 
  beta     365.2332u  365.2332u  462.6700u  462.6700u  452.1628u  447.5141u
  gam eff  536.7083m  536.7083m    1.0307     1.0307     1.1104     1.1430 
  gm       226.7846f  226.7837f  493.1284f  493.1285f  4.350e-24    0.     
  gds        2.4318f    2.4318f    7.8486f    7.8486f  6.256e-26    0.     
  gmb       90.4982f   90.4978f  198.8543f  198.8543f  1.125e-24    0.     
  cdtot      6.5971f    6.5971f  501.1062a  501.1061a    4.0528f    3.6102f
  cgtot      6.1152f    6.1152f    2.8705f    2.8705f    2.7753f    2.7471f
  cstot      1.5754f    1.5754f    9.3659f  501.1062a  501.1061a  501.1061a
  cbtot      8.0963f    8.0963f   10.9412f    2.0763f    5.5141f    5.0363f
  cgs        1.4765f    1.4765f  484.8069a  309.3287a  327.6910a  485.2295a
  cgd        1.5641f    1.5641f  309.3287a  484.8069a  485.2290a  334.6526a



 subckt                                                                    
 element  0:m1042    0:m1043    0:m1044    0:m1045    0:m1046    0:m1047   
 model    0:cmosntt  0:cmosntt  0:cmosntt  0:cmosntt  0:cmosntt  0:cmosntt 
 region       Cutoff     Cutoff     Cutoff     Cutoff     Cutoff     Cutoff
  id       -24.5061f   60.2686f  -60.2686f   60.2686f   28.4552p    0.     
  ibs        0.         0.         0.         0.         0.         0.     
  ibd        0.         0.         0.         0.         0.         0.     
  vgs       -1.2439    22.8429n   -4.1593    12.7954n  840.7021m   -5.0000 
  vds       -1.2439     4.1593    -4.1593     4.1593   840.7019m   -3.6678 
  vbs       -1.2439     0.        -4.1593     0.        -4.1593    -5.0000 
  vth      684.1235m  647.5585m  647.5585m  647.5585m    1.1748   909.1236m
  vdsat     42.2420m   42.2397m   42.2397m   42.2397m   52.3632m   47.7377m
  vod       -1.9280  -647.5585m   -4.8069  -647.5585m -334.0660m   -5.9091 
  beta     462.7920u  463.6253u  463.6253u  463.6253u  425.1555u  446.6044u
  gam eff    1.0307     1.0307     1.0307     1.0307     1.3118     1.1494 
  gm       570.2362f    1.4023p    1.4023p    1.4023p  760.4768p    0.     
  gds        8.1345f   19.4365f   19.4365f   19.4365f   14.0972p    0.     
  gmb      229.2591f  552.2453f  552.2454f  552.2451f   38.5324p    0.     
  cdtot    501.1063a    7.8392f  501.1065a  501.1061a    4.3806f    3.5856f
  cgtot      2.8673f    2.8456f    2.8456f    2.8456f    2.0622f    2.7414f
  cstot    501.1061a  501.1065a  501.1061a  501.1065a  501.2557a  501.1061a
  cbtot      2.0730f    9.3888f    2.0507f    2.0507f    5.0108f    5.0047f
  cgs      484.8451a  309.7844a  485.1040a  309.7844a  437.9440a  485.2278a
  cgd      309.3903a  485.1040a  309.7844a  485.1040a  492.9837a  336.0587a



 subckt                                                                    
 element  0:m1048    0:m1049    0:m1050    0:m1051    0:m1052    0:m1053   
 model    0:cmosntt  0:cmosntt  0:cmosntt  0:cmosntt  0:cmosptt  0:cmosptt 
 region       Cutoff     Cutoff     Linear     Linear     Cutoff     Linear
  id      -5.038e-19  -16.9968f   10.0100p   10.0100p -1.134e-21   11.2745p
  ibs        0.         0.         0.         0.         0.         0.     
  ibd        0.         0.         0.         0.         0.         0.     
  vgs       -1.3322  -328.8009m    5.0000     5.0000    -8.1412n   -5.0000 
  vds       -1.0034  -328.8009m   12.7954n   12.7954n  -17.0112n   17.0112n
  vbs       -1.3322  -328.8009m    0.         0.         0.        17.0112n
  vth      772.2857m  695.6002m  699.7240m  699.7240m -855.7622m -855.7622m
  vdsat     44.2363m   42.2427m    1.4215     1.4215   -48.7798m   -2.3271 
  vod       -2.1045    -1.0244     4.3003     4.3003   855.7621m   -4.1442 
  beta     457.5325u  462.5237u  388.6356u  388.6356u  362.3202u  228.3604u
  gam eff    1.0658     1.0307     1.0307     1.0307   536.7083m  536.7083m
  gm        12.2335a  395.5064f  685.3921f  685.3921f  2.559e-20    1.4424p
  gds      1.855e-19    9.9709f  782.3150u  782.3150u   66.6372f  662.7649u
  gmb        4.1147a  160.0836f  581.9400f  581.9399f  1.050e-20  859.1429f
  cdtot      3.9792f  501.1062a    6.8732f    6.8732f   13.9318f    3.0343f
  cgtot      2.8384f    2.8743f    4.8182f    4.8182f    6.1666f   10.2469f
  cstot    501.1061a  501.1061a    1.1362f    1.1362f    1.5754f    4.2762f
  cbtot      5.5138f    2.0803f    6.9007f    6.9007f   15.4744f    2.4879f
  cgs      484.8919a  484.7612a    1.6775f    1.6775f    1.4847f    4.8198f
  cgd      317.8259a  309.2535a    2.0893f    2.0893f    1.5639f    4.6535f



 subckt                                                                    
 element  0:m1054    0:m1055    0:m1056    0:m1057    0:m1058    0:m1059   
 model    0:cmosntt  0:cmosntt  0:cmosptt  0:cmosntt  0:cmosptt  0:cmosptt 
 region       Linear     Cutoff     Cutoff     Linear     Cutoff     Cutoff
  id         6.2745p    1.2745p  -10.0468f   10.0100p  -10.0468f   10.0468f
  ibs        0.         0.         0.         0.         0.         0.     
  ibd        0.         0.         0.         0.         0.         0.     
  vgs        5.0000     9.2158n    0.         5.0000   -17.0112n    5.0000 
  vds        3.5796n    5.0000    -5.0000    12.7954n   -5.0000     5.0000 
  vbs        0.        -3.5796n    0.         0.         0.         5.0000 
  vth      617.1463m  554.4367m -831.5629m  699.7240m -831.5629m -831.5629m
  vdsat      1.4338    43.6776m  -48.7748m    1.4215   -48.7748m  -48.7748m
  vod        4.3829  -554.4367m  831.5629m    4.3003   831.5628m    5.8316 
  beta     839.4280u    1.0231m  365.2332u  388.6356u  365.2332u  365.2332u
  gam eff    1.0081     1.0081   536.7083m    1.0307   536.7083m  536.7083m
  gm       412.5168f   29.6432p  226.7836f  685.3921f  226.7837f  226.7837f
  gds        1.7528m  538.1446f    2.4318f  782.3150u    2.4318f    2.4318f
  gmb      319.9050f   10.9960p   90.4978f  581.9399f   90.4978f   90.4978f
  cdtot     11.1049f    6.7565f    6.5971f    6.8732f    7.2230f    1.5754f
  cgtot      9.9552f    5.5088f    6.1152f    4.8182f    6.1152f    6.1152f
  cstot      2.5830f    1.1011f    1.5754f    1.1362f    1.5754f    1.5754f
  cbtot     10.6453f    9.4210f    8.0963f    6.9007f    8.7222f    3.0746f
  cgs        3.6333f  675.8304a    1.4765f    1.6775f    1.4765f    1.5641f
  cgd        4.5925f    1.0673f    1.5641f    2.0893f    1.5641f    1.4765f



 subckt                                                                    
 element  0:m1060    0:m1061    0:m1062    0:m1063    0:m1064    0:m1065   
 model    0:cmosntt  0:cmosntt  0:cmosptt  0:cmosptt  0:cmosntt  0:cmosntt 
 region       Linear     Linear     Cutoff     Linear     Linear     Cutoff
  id        20.0201p   20.0201p -1.134e-21   11.2745p    6.2745p    1.2745p
  ibs        0.         0.         0.         0.         0.         0.     
  ibd        0.         0.         0.         0.         0.         0.     
  vgs        5.0000     5.0000     0.        -5.0000     5.0000    -3.5796n
  vds       11.4215n   11.4215n  -17.0112n   17.0112n    3.5796n    5.0000 
  vbs        0.       -11.4215n    0.        17.0112n    0.        -3.5796n
  vth      617.1463m  617.1463m -855.7622m -855.7622m  617.1463m  554.4367m
  vdsat      1.4338     1.4338   -48.7798m   -2.3271     1.4338    43.6776m
  vod        4.3829     4.3829   855.7622m   -4.1442     4.3829  -554.4367m
  beta     839.4280u  839.4281u  362.3202u  228.3604u  839.4280u    1.0231m
  gam eff    1.0081     1.0081   536.7083m  536.7083m    1.0081     1.0081 
  gm         1.3162p    1.3162p  2.559e-20    1.4424p  412.5168f   29.6432p
  gds        1.7528m    1.7528m   66.6372f  662.7649u    1.7528m  538.1445f
  gmb        1.0207p    1.0207p  1.050e-20  859.1429f  319.9050f   10.9960p
  cdtot     11.1049f   13.0485f   13.9318f    3.0343f   11.1049f    6.7565f
  cgtot      9.9552f    9.9552f    6.1666f   10.2469f    9.9552f    5.5088f
  cstot      2.5830f    2.5830f    1.5754f    4.2762f    2.5830f    1.1011f
  cbtot     10.6453f   12.5888f   15.4744f    2.4879f   10.6453f    9.4210f
  cgs        3.6333f    3.6333f    1.4847f    4.8198f    3.6333f  675.8304a
  cgd        4.5925f    4.5925f    1.5639f    4.6535f    4.5925f    1.0673f



 subckt                                                                    
 element  0:m1066    0:m1067    0:m1068    0:m1069    0:m1070    0:m1071   
 model    0:cmosptt  0:cmosptt  0:cmosptt  0:cmosptt  0:cmosptt  0:cmosptt 
 region       Linear     Cutoff     Cutoff     Cutoff     Linear     Linear
  id        11.2745p  -19.2256f  -11.2359p   24.3732f    5.0244p  -11.2745p
  ibs        0.         0.         0.         0.         0.         0.     
  ibd        0.         0.         0.         0.         0.         0.     
  vgs       -5.0000    -8.1412n -945.8377m    5.0000    -5.0000    -5.0000 
  vds        8.1412n   -4.0542  -945.8376m    5.0000     3.6281n   -8.1412n
  vbs        8.1412n    0.         4.0542     5.0000     3.6281n    0.     
  vth     -849.8368m -830.2152m   -1.3896  -825.6375m -849.8368m -849.8368m
  vdsat     -2.3353   -49.0796m  -57.3138m  -49.0787m   -2.3353    -2.3353 
  vod       -4.1502   830.2152m  443.8004m    5.8256    -4.1502    -4.1502 
  beta     474.7926u  768.9727u  625.0260u  770.1461u  474.7926u  474.7926u
  gam eff  538.0631m  538.0631m  513.6333m  538.0631m  538.0631m  538.0631m
  gm         1.4186p  433.9750f  300.3617p  550.1700f  632.1887f    1.4186p
  gds        1.3849m    5.0062f    5.4659p    5.9001f    1.3849m    1.3849m
  gmb      832.6365f  172.7248f   26.7896p  218.1145f  371.0578f  832.6365f
  cdtot      6.4111f   11.0749f   18.6717f   18.4727f    6.4111f   29.8321f
  cgtot     21.0239f   12.3229f    8.7336f   12.3032f   21.0239f   21.0239f
  cstot     29.8321f    3.3154f    3.3154f    3.3154f    8.9634f    6.4111f
  cbtot     25.5637f   13.6865f   17.5216f   21.0677f    4.6951f   25.5637f
  cgs       10.1436f    3.1042f    3.2660f    3.2918f   10.1436f    9.7725f
  cgd        9.7725f    3.2917f    3.3023f    3.1010f    9.7725f   10.1436f



 subckt                                                                    
 element  0:m1072    0:m1073    0:m1074    0:m1075    0:m1076    0:m1077   
 model    0:cmosntt  0:cmosntt  0:cmosntt  0:cmosntt  0:cmosntt  0:cmosntt 
 region       Cutoff     Linear     Linear     Cutoff     Cutoff     Cutoff
  id        -1.2745p   27.2061p   27.2061p -1.271e-19 -1.026e-19    1.2745p
  ibs        0.         0.         0.         0.         0.         0.     
  ibd        0.         0.         0.         0.         0.         0.     
  vgs       -5.0000     5.0000     5.0000   -31.0421n  -13.8700n    0.     
  vds       -5.0000    15.5211n   15.5211n  -17.1722n  -13.8700n    5.0000 
  vbs       -5.0000     0.       -15.5211n  -31.0421n  -13.8700n    0.     
  vth      554.4367m  617.1463m  617.1463m  617.1463m  617.1463m  554.4367m
  vdsat     43.6776m    1.4338     1.4338    43.6814m   43.6814m   43.6776m
  vod       -5.5544     4.3829     4.3829  -617.1463m -617.1463m -554.4367m
  beta       1.0231m  839.4280u  839.4280u    1.0202m    1.0202m    1.0231m
  gam eff    1.0081     1.0081     1.0081     1.0081     1.0081     1.0081 
  gm        29.6432p    1.7887p    1.7887p    2.9567a    2.3881a   29.6432p
  gds      538.1445f    1.7528m    1.7528m    7.4005p    7.4005p  538.1445f
  gmb       10.9960p    1.3871p    1.3871p    1.1544a  9.324e-19   10.9960p
  cdtot      1.1011f   11.1049f   17.9075f    7.9344f    1.1011f    6.7565f
  cgtot      5.5088f    9.9552f    9.9552f    5.5825f    5.5825f    5.5088f
  cstot      6.7565f    2.5830f    2.5830f    1.1011f    1.1011f    1.1011f
  cbtot      9.4210f   10.6453f   17.4478f   10.6749f    3.8415f    9.4210f
  cgs        1.0673f    3.6333f    3.6333f    1.0664f    1.0664f  675.8304a
  cgd      675.8304a    4.5925f    4.5925f  674.6294a  674.6294a    1.0673f



 subckt                                                                    
 element  0:m1078    0:m1079    0:m1080    0:m1081    0:m1082    0:m1083   
 model    0:cmosptt  0:cmosptt  0:cmosptt  0:cmosptt  0:cmosptt  0:cmosptt 
 region       Linear     Linear     Linear     Cutoff     Linear     Cutoff
  id        11.2745p  -26.3870p  -26.3870p  5.306e-21  5.887e-19  -10.0468f
  ibs        0.         0.         0.         0.         0.         0.     
  ibd        0.         0.         0.         0.         0.         0.     
  vgs       -5.0000    -5.0000    -5.0000    71.4859n   -5.0000   -79.6272n
  vds        8.1412n  -39.8136n  -39.8136n   79.6272n  888.1784a   -5.0000 
  vbs        8.1412n    0.        39.8136n   79.6272n  888.1784a    0.     
  vth     -849.8368m -855.7622m -855.7622m -855.7622m -855.7622m -831.5629m
  vdsat     -2.3353    -2.3271    -2.3271   -48.7798m   -2.3271   -48.7748m
  vod       -4.1502    -4.1442    -4.1442   855.7622m   -4.1442   831.5628m
  beta     474.7926u  228.3604u  228.3604u  362.3202u  228.3604u  365.2332u
  gam eff  538.0631m  536.7083m  536.7083m  536.7083m  536.7083m  536.7083m
  gm         1.4186p    3.3758p    3.3758p  1.198e-19  7.531e-20  226.7840f
  gds        1.3849m  662.7649u  662.7649u   66.6371f  662.7649u    2.4318f
  gmb      832.6365f    2.0108p    2.0108p  4.916e-20  4.486e-20   90.4979f
  cdtot      6.4111f   13.6122f   16.6326f   10.9114f    3.0343f    6.5971f
  cgtot     21.0239f   10.2469f   10.2469f    6.1666f   10.2469f    6.1152f
  cstot     29.8321f    3.0343f    3.0343f    1.5754f    4.2762f    1.5754f
  cbtot     25.5637f   11.8239f   14.8443f   12.4540f    2.4879f    8.0963f
  cgs       10.1436f    4.6535f    4.6535f    1.5639f    4.8198f    1.4765f
  cgd        9.7725f    4.8198f    4.8198f    1.4847f    4.6535f    1.5641f



 subckt                                                                    
 element  0:m1084    0:m1085    0:m1086    0:m1087    0:m1088    0:m1089   
 model    0:cmosptt  0:cmosptt  0:cmosptt  0:cmosptt  0:cmosntt  0:cmosptt 
 region       Linear     Cutoff     Cutoff     Cutoff     Cutoff     Linear
  id        -5.0100p  -10.0468f   10.8664p    2.5048f   -1.2745p  -11.2745p
  ibs        0.         0.         0.         0.         0.         0.     
  ibd        0.         0.         0.         0.         0.         0.     
  vgs       -5.0000  -581.9150p  -56.0017n    3.9660    -5.0000    -5.0000 
  vds       -7.5593n   -5.0000     1.0340     3.9660    -5.0000    -8.1412n
  vbs        0.         7.5593n    5.0000     3.9660    -5.0000     0.     
  vth     -855.7622m -831.5629m   -1.4206  -850.4233m  554.4367m -849.8368m
  vdsat     -2.3271   -48.7748m  -56.5121m  -48.4458m   43.6776m   -2.3353 
  vod       -4.1442   831.5629m    1.4206     4.8164    -5.5544    -4.1502 
  beta     228.3604u  365.2332u  129.4535u  162.5172u    1.0231m  474.7926u
  gam eff  536.7083m  536.7083m  503.1656m  533.5245m    1.0081   538.0631m
  gm       640.9530f  226.7836f  289.6796p   56.5399f   29.6432p    1.4186p
  gds      662.7649u    2.4318f    5.1740p  656.7989a  538.1447f    1.3849m
  gmb      381.7785f   90.4978f   27.4976p   23.0108f   10.9960p  832.6367f
  cdtot     12.1019f    8.2091f    2.8841f  705.3938a    1.1011f   29.8321f
  cgtot     10.2469f    6.1152f    2.2447f    3.0262f    5.5088f   21.0239f
  cstot      3.0343f    1.5754f  705.3935a  705.3938a    6.7565f    6.4111f
  cbtot     10.3136f    9.7083f    3.0244f    1.6610f    9.4210f   25.5637f
  cgs        4.6535f    1.4765f  702.6225a  700.2725a    1.0673f    9.7725f
  cgd        4.8198f    1.5641f  696.4311a  664.9964a  675.8304a   10.1436f



 subckt                                                                    
 element  0:m1090    0:m1091    0:m1092    0:m1093    0:m1094    0:m1095   
 model    0:cmosntt  0:cmosntt  0:cmosntt  0:cmosntt  0:cmosntt  0:cmosntt 
 region       Cutoff     Cutoff     Cutoff     Cutoff     Linear     Cutoff
  id        60.8704f   11.8209p    0.       -24.5061f   10.0100p  1.004e-20
  ibs        0.         0.         0.         0.         0.         0.     
  ibd        0.         0.         0.         0.         0.         0.     
  vgs       12.7954n  809.9831m   -5.0000    -1.2439     5.0000    12.7954n
  vds        4.1900   809.9830m   -3.7561    -1.2439    12.7954n   20.5727n
  vbs        0.        -4.1900    -5.0000    -1.2439     0.         0.     
  vth      647.1732m    1.1768   896.2738m  684.1235m  699.7240m  699.7240m
  vdsat     42.2397m   52.3981m   47.5097m   42.2420m    1.4215    42.2430m
  vod     -647.1732m -366.7854m   -5.8963    -1.9280     4.3003  -699.7240m
  beta     463.6339u  424.9742u  447.5141u  462.7920u  388.6356u  462.4266u
  gam eff    1.0307     1.3132     1.1430     1.0307     1.0307     1.0307 
  gm         1.4163p  316.3946p    0.       570.2361f  685.3921f  2.336e-19
  gds       19.7437f    5.9284p    0.         8.1345f  782.3150u  487.9823f
  gmb      557.6372f   15.9385p    0.       229.2590f  581.9399f  9.616e-20
  cdtot      3.1392f    4.3806f    3.6102f  501.1063a    6.8732f    4.2116f
  cgtot      2.8454f    2.0619f    2.7471f    2.8673f    4.8182f    2.8769f
  cstot    501.1065a  501.1682a  501.1061a  501.1061a    1.1362f  501.1061a
  cbtot      4.6886f    5.0105f    5.0363f    2.0730f    6.9007f    5.7934f
  cgs      309.7882a  437.9113a  485.2295a  484.8451a    1.6775f  309.2027a
  cgd      485.1066a  492.9768a  334.6526a  309.3903a    2.0893f  484.7309a



 subckt                                                                    
 element  0:m1096    0:m1097    0:m1098    0:m1099    0:m1100    0:m1101   
 model    0:cmosntt  0:cmosntt  0:cmosntt  0:cmosntt  0:cmosptt  0:cmosptt 
 region       Cutoff     Linear     Linear     Cutoff     Linear     Linear
  id       2.353e-20  -26.9105p  -26.9105p    1.2745p    5.1228p   -5.1228p
  ibs        0.         0.         0.         0.         0.         0.     
  ibd        0.         0.         0.         0.         0.         0.     
  vgs       -7.7772n    5.0000     5.0000    68.7971n   -5.0000    -5.0000 
  vds       48.2244n  -34.3985n  -34.3985n    5.0000     7.7295n   -7.7295n
  vbs      -20.5727n  -68.7971n  -34.3985n    0.         7.7295n    0.     
  vth      699.7240m  699.7240m  699.7240m  554.4367m -855.7622m -855.7622m
  vdsat     42.2430m    1.4215     1.4215    43.6776m   -2.3271    -2.3271 
  vod     -699.7240m    4.3003     4.3003  -554.4367m   -4.1442    -4.1442 
  beta     462.4266u  388.6356u  388.6356u    1.0231m  228.3604u  228.3604u
  gam eff    1.0307     1.0307     1.0307     1.0081   536.7083m  536.7083m
  gm       5.476e-19    1.8426p    1.8426p   29.6432p  655.3800f  655.3800f
  gds      487.9816f  782.3150u  782.3150u  538.1454f  662.7649u  662.7649u
  gmb      2.254e-19    1.5645p    1.5645p   10.9960p  390.3718f  390.3718f
  cdtot      7.1308f    4.8467f    1.1362f    6.7565f    3.0343f    4.2762f
  cgtot      2.8769f    4.8182f    4.8182f    5.5088f   10.2469f   10.2469f
  cstot    501.1061a    1.9950f    1.9950f    1.1011f   27.4788f    3.0343f
  cbtot      8.7126f    5.7330f    2.0225f    9.4210f   25.6905f    2.4879f
  cgs      309.2027a    2.0893f    2.0893f  675.8304a    4.8198f    4.6535f
  cgd      484.7309a    1.6775f    1.6775f    1.0673f    4.6535f    4.8198f



 subckt                                                                    
 element  0:m1102    0:m1103    0:m1104    0:m1105    0:m1106    0:m1107   
 model    0:cmosptt  0:cmosptt  0:cmosptt  0:cmosptt  0:cmosptt  0:cmosptt 
 region       Linear     Linear     Linear     Linear     Linear     Linear
  id       -10.2456p    7.6842p    7.6842p    0.         0.         0.     
  ibs        0.         0.         0.         0.         0.         0.     
  ibd        0.         0.         0.         0.         0.         0.     
  vgs       -5.0000    -5.0000    -5.0000    -5.0000    -5.0000    -5.0000 
  vds      -15.4589n   11.5942n   11.5942n    0.         0.         0.     
  vbs        7.7295n   23.1884n   11.5942n    0.         0.         0.     
  vth     -855.7622m -855.7622m -855.7622m -855.7622m -855.7622m -855.7622m
  vdsat     -2.3271    -2.3271    -2.3271    -2.3271    -2.3271    -2.3271 
  vod       -4.1442    -4.1442    -4.1442    -4.1442    -4.1442    -4.1442 
  beta     228.3604u  228.3604u  228.3604u  228.3604u  228.3604u  228.3604u
  gam eff  536.7083m  536.7083m  536.7083m  536.7083m  536.7083m  536.7083m
  gm         1.3108p  983.0701f  983.0700f    0.         0.         0.     
  gds      662.7649u  662.7649u  662.7649u  662.7649u  662.7649u  662.7649u
  gmb      780.7436f  585.5577f  585.5577f    0.         0.         0.     
  cdtot     16.6326f   10.8601f    3.0343f   28.9890f    4.2762f    4.2762f
  cgtot     10.2469f   10.2469f   10.2469f   10.2469f   10.2469f   10.2469f
  cstot      3.0343f    4.2762f    4.2762f    3.0343f    3.0343f    3.0343f
  cbtot     14.8443f   10.3136f    2.4879f   27.2007f    2.4879f    2.4879f
  cgs        4.6535f    4.8198f    4.8198f    4.6535f    4.6535f    4.6535f
  cgd        4.8198f    4.6535f    4.6535f    4.8198f    4.8198f    4.8198f



 subckt                                                                    
 element  0:m1108    0:m1109    0:m1110    0:m1111    0:m1112    0:m1113   
 model    0:cmosptt  0:cmosptt  0:cmosptt  0:cmosptt  0:cmosptt  0:cmosptt 
 region       Cutoff     Linear     Linear     Linear     Cutoff     Cutoff
  id      -1.296e-20   42.9637p   42.9637p   42.9637p  -10.0468f  -10.0468f
  ibs        0.         0.         0.         0.         0.         0.     
  ibd        0.         0.         0.         0.         0.         0.     
  vgs      -23.1884n   -5.0000    -5.0000    -5.0000  -194.4748n  -23.1884n
  vds     -194.4748n   64.8249n   64.8249n   64.8249n   -5.0000    -5.0000 
  vbs        0.       194.4748n  129.6499n   64.8249n    0.         0.     
  vth     -855.7622m -855.7622m -855.7622m -855.7622m -831.5629m -831.5629m
  vdsat    -48.7798m   -2.3271    -2.3271    -2.3271   -48.7748m  -48.7748m
  vod      855.7621m   -4.1442    -4.1442    -4.1442   831.5627m  831.5628m
  beta     362.3202u  228.3604u  228.3604u  228.3604u  365.2332u  365.2332u
  gam eff  536.7083m  536.7083m  536.7083m  536.7083m  536.7083m  536.7083m
  gm       2.925e-19    5.4965p    5.4965p    5.4965p  226.7846f  226.7837f
  gds       66.6370f  662.7649u  662.7649u  662.7649u    2.4318f    2.4318f
  gmb      1.201e-19    3.2739p    3.2739p    3.2739p   90.4982f   90.4978f
  cdtot     15.4420f   10.8601f   10.8601f    3.0343f    6.5971f    6.5971f
  cgtot      6.1666f   10.2469f   10.2469f   10.2469f    6.1152f    6.1152f
  cstot      1.5754f    4.2762f    4.2762f    4.2762f    1.5754f    1.5754f
  cbtot     16.9846f   10.3136f   10.3136f    2.4879f    8.0963f    8.0963f
  cgs        1.4847f    4.8198f    4.8198f    4.8198f    1.4765f    1.4765f
  cgd        1.5639f    4.6535f    4.6535f    4.6535f    1.5641f    1.5641f



 subckt                                                                    
 element  0:m1114    0:m1115    0:m1116    0:m1117    0:m1118    0:m1119   
 model    0:cmosntt  0:cmosntt  0:cmosntt  0:cmosntt  0:cmosntt  0:cmosntt 
 region       Cutoff     Cutoff     Cutoff     Cutoff     Cutoff     Cutoff
  id       -21.1922f   21.1922f  1.725e-25    0.       -24.5061f   60.2686f
  ibs        0.         0.         0.         0.         0.         0.     
  ibd        0.         0.         0.         0.         0.         0.     
  vgs     -826.2692m   31.0421n -826.2692m   -5.0000    -1.2439    22.8429n
  vds     -826.2692m  826.2692m    4.1737    -3.7561    -1.2439     4.1593 
  vbs     -826.2692m    0.      -826.2692m   -5.0000    -1.2439     0.     
  vth      689.3610m  689.3610m  828.1898m  896.2738m  684.1235m  647.5585m
  vdsat     42.2423m   42.2423m   46.2683m   47.5097m   42.2420m   42.2397m
  vod       -1.5156  -689.3610m   -1.6545    -5.8963    -1.9280  -647.5585m
  beta     462.6700u  462.6700u  452.1628u  447.5141u  462.7920u  463.6253u
  gam eff    1.0307     1.0307     1.1104     1.1430     1.0307     1.0307 
  gm       493.1284f  493.1285f  4.350e-24    0.       570.2362f    1.4023p
  gds        7.8486f    7.8486f  6.256e-26    0.         8.1345f   19.4365f
  gmb      198.8543f  198.8543f  1.125e-24    0.       229.2591f  552.2453f
  cdtot    501.1062a  501.1061a    4.0528f    3.6102f  501.1063a    7.8392f
  cgtot      2.8705f    2.8705f    2.7753f    2.7471f    2.8673f    2.8456f
  cstot      9.3659f  501.1062a  501.1061a  501.1061a  501.1061a  501.1065a
  cbtot     10.9412f    2.0763f    5.5141f    5.0363f    2.0730f    9.3888f
  cgs      484.8069a  309.3287a  327.6910a  485.2295a  484.8451a  309.7844a
  cgd      309.3287a  484.8069a  485.2290a  334.6526a  309.3903a  485.1040a



 subckt                                                                    
 element  0:m1120    0:m1121    0:m1122    0:m1123    0:m1124    0:m1125   
 model    0:cmosntt  0:cmosntt  0:cmosntt  0:cmosntt  0:cmosntt  0:cmosntt 
 region       Cutoff     Cutoff     Cutoff     Cutoff     Cutoff     Cutoff
  id       -60.2686f   60.2686f   28.4552p    0.      -5.038e-19  -16.9968f
  ibs        0.         0.         0.         0.         0.         0.     
  ibd        0.         0.         0.         0.         0.         0.     
  vgs       -4.1593    12.7954n  840.7021m   -5.0000    -1.3322  -328.8009m
  vds       -4.1593     4.1593   840.7019m   -3.6678    -1.0034  -328.8009m
  vbs       -4.1593     0.        -4.1593    -5.0000    -1.3322  -328.8009m
  vth      647.5585m  647.5585m    1.1748   909.1236m  772.2857m  695.6002m
  vdsat     42.2397m   42.2397m   52.3632m   47.7377m   44.2363m   42.2427m
  vod       -4.8069  -647.5585m -334.0660m   -5.9091    -2.1045    -1.0244 
  beta     463.6253u  463.6253u  425.1555u  446.6044u  457.5325u  462.5237u
  gam eff    1.0307     1.0307     1.3118     1.1494     1.0658     1.0307 
  gm         1.4023p    1.4023p  760.4768p    0.        12.2335a  395.5064f
  gds       19.4365f   19.4365f   14.0972p    0.       1.855e-19    9.9709f
  gmb      552.2454f  552.2451f   38.5324p    0.         4.1147a  160.0836f
  cdtot    501.1065a  501.1061a    4.3806f    3.5856f    3.9792f  501.1062a
  cgtot      2.8456f    2.8456f    2.0622f    2.7414f    2.8384f    2.8743f
  cstot    501.1061a  501.1065a  501.2557a  501.1061a  501.1061a  501.1061a
  cbtot      2.0507f    2.0507f    5.0108f    5.0047f    5.5138f    2.0803f
  cgs      485.1040a  309.7844a  437.9440a  485.2278a  484.8919a  484.7612a
  cgd      309.7844a  485.1040a  492.9837a  336.0587a  317.8259a  309.2535a



 subckt                                                                    
 element  0:m1126    0:m1127    0:m1128    0:m1129    0:m1130    0:m1131   
 model    0:cmosntt  0:cmosntt  0:cmosptt  0:cmosptt  0:cmosntt  0:cmosntt 
 region       Linear     Linear     Cutoff     Linear     Linear     Cutoff
  id        10.0100p   10.0100p -1.134e-21   11.2745p    6.2745p    1.2745p
  ibs        0.         0.         0.         0.         0.         0.     
  ibd        0.         0.         0.         0.         0.         0.     
  vgs        5.0000     5.0000    -8.1412n   -5.0000     5.0000     9.2158n
  vds       12.7954n   12.7954n  -17.0112n   17.0112n    3.5796n    5.0000 
  vbs        0.         0.         0.        17.0112n    0.        -3.5796n
  vth      699.7240m  699.7240m -855.7622m -855.7622m  617.1463m  554.4367m
  vdsat      1.4215     1.4215   -48.7798m   -2.3271     1.4338    43.6776m
  vod        4.3003     4.3003   855.7621m   -4.1442     4.3829  -554.4367m
  beta     388.6356u  388.6356u  362.3202u  228.3604u  839.4280u    1.0231m
  gam eff    1.0307     1.0307   536.7083m  536.7083m    1.0081     1.0081 
  gm       685.3921f  685.3921f  2.559e-20    1.4424p  412.5168f   29.6432p
  gds      782.3150u  782.3150u   66.6372f  662.7649u    1.7528m  538.1446f
  gmb      581.9400f  581.9399f  1.050e-20  859.1429f  319.9050f   10.9960p
  cdtot      6.8732f    6.8732f   13.9318f    3.0343f   11.1049f    6.7565f
  cgtot      4.8182f    4.8182f    6.1666f   10.2469f    9.9552f    5.5088f
  cstot      1.1362f    1.1362f    1.5754f    4.2762f    2.5830f    1.1011f
  cbtot      6.9007f    6.9007f   15.4744f    2.4879f   10.6453f    9.4210f
  cgs        1.6775f    1.6775f    1.4847f    4.8198f    3.6333f  675.8304a
  cgd        2.0893f    2.0893f    1.5639f    4.6535f    4.5925f    1.0673f



 subckt                                                                    
 element  0:m1132    0:m1133    0:m1134    0:m1135    0:m1136    0:m1137   
 model    0:cmosptt  0:cmosntt  0:cmosptt  0:cmosptt  0:cmosntt  0:cmosntt 
 region       Cutoff     Linear     Cutoff     Cutoff     Linear     Linear
  id       -10.0468f   10.0100p  -10.0468f   10.0468f   20.0201p   20.0201p
  ibs        0.         0.         0.         0.         0.         0.     
  ibd        0.         0.         0.         0.         0.         0.     
  vgs        0.         5.0000   -17.0112n    5.0000     5.0000     5.0000 
  vds       -5.0000    12.7954n   -5.0000     5.0000    11.4215n   11.4215n
  vbs        0.         0.         0.         5.0000     0.       -11.4215n
  vth     -831.5629m  699.7240m -831.5629m -831.5629m  617.1463m  617.1463m
  vdsat    -48.7748m    1.4215   -48.7748m  -48.7748m    1.4338     1.4338 
  vod      831.5629m    4.3003   831.5628m    5.8316     4.3829     4.3829 
  beta     365.2332u  388.6356u  365.2332u  365.2332u  839.4280u  839.4281u
  gam eff  536.7083m    1.0307   536.7083m  536.7083m    1.0081     1.0081 
  gm       226.7836f  685.3921f  226.7837f  226.7837f    1.3162p    1.3162p
  gds        2.4318f  782.3150u    2.4318f    2.4318f    1.7528m    1.7528m
  gmb       90.4978f  581.9399f   90.4978f   90.4978f    1.0207p    1.0207p
  cdtot      6.5971f    6.8732f    7.2230f    1.5754f   11.1049f   13.0485f
  cgtot      6.1152f    4.8182f    6.1152f    6.1152f    9.9552f    9.9552f
  cstot      1.5754f    1.1362f    1.5754f    1.5754f    2.5830f    2.5830f
  cbtot      8.0963f    6.9007f    8.7222f    3.0746f   10.6453f   12.5888f
  cgs        1.4765f    1.6775f    1.4765f    1.5641f    3.6333f    3.6333f
  cgd        1.5641f    2.0893f    1.5641f    1.4765f    4.5925f    4.5925f



 subckt                                                                    
 element  0:m1138    0:m1139    0:m1140    0:m1141    0:m1142    0:m1143   
 model    0:cmosptt  0:cmosptt  0:cmosntt  0:cmosntt  0:cmosptt  0:cmosptt 
 region       Cutoff     Linear     Linear     Cutoff     Linear     Cutoff
  id      -1.134e-21   11.2745p    6.2745p    1.2745p   11.2745p  -19.2256f
  ibs        0.         0.         0.         0.         0.         0.     
  ibd        0.         0.         0.         0.         0.         0.     
  vgs        0.        -5.0000     5.0000    -3.5796n   -5.0000    -8.1412n
  vds      -17.0112n   17.0112n    3.5796n    5.0000     8.1412n   -4.0542 
  vbs        0.        17.0112n    0.        -3.5796n    8.1412n    0.     
  vth     -855.7622m -855.7622m  617.1463m  554.4367m -849.8368m -830.2152m
  vdsat    -48.7798m   -2.3271     1.4338    43.6776m   -2.3353   -49.0796m
  vod      855.7622m   -4.1442     4.3829  -554.4367m   -4.1502   830.2152m
  beta     362.3202u  228.3604u  839.4280u    1.0231m  474.7926u  768.9727u
  gam eff  536.7083m  536.7083m    1.0081     1.0081   538.0631m  538.0631m
  gm       2.559e-20    1.4424p  412.5168f   29.6432p    1.4186p  433.9750f
  gds       66.6372f  662.7649u    1.7528m  538.1445f    1.3849m    5.0062f
  gmb      1.050e-20  859.1429f  319.9050f   10.9960p  832.6365f  172.7248f
  cdtot     13.9318f    3.0343f   11.1049f    6.7565f    6.4111f   11.0749f
  cgtot      6.1666f   10.2469f    9.9552f    5.5088f   21.0239f   12.3229f
  cstot      1.5754f    4.2762f    2.5830f    1.1011f   29.8321f    3.3154f
  cbtot     15.4744f    2.4879f   10.6453f    9.4210f   25.5637f   13.6865f
  cgs        1.4847f    4.8198f    3.6333f  675.8304a   10.1436f    3.1042f
  cgd        1.5639f    4.6535f    4.5925f    1.0673f    9.7725f    3.2917f



 subckt                                                                    
 element  0:m1144    0:m1145    0:m1146    0:m1147    0:m1148    0:m1149   
 model    0:cmosptt  0:cmosptt  0:cmosptt  0:cmosptt  0:cmosntt  0:cmosntt 
 region       Cutoff     Cutoff     Linear     Linear     Cutoff     Linear
  id       -11.2359p   24.3732f    5.0244p  -11.2745p   -1.2745p   27.2061p
  ibs        0.         0.         0.         0.         0.         0.     
  ibd        0.         0.         0.         0.         0.         0.     
  vgs     -945.8377m    5.0000    -5.0000    -5.0000    -5.0000     5.0000 
  vds     -945.8376m    5.0000     3.6281n   -8.1412n   -5.0000    15.5211n
  vbs        4.0542     5.0000     3.6281n    0.        -5.0000     0.     
  vth       -1.3896  -825.6375m -849.8368m -849.8368m  554.4367m  617.1463m
  vdsat    -57.3138m  -49.0787m   -2.3353    -2.3353    43.6776m    1.4338 
  vod      443.8004m    5.8256    -4.1502    -4.1502    -5.5544     4.3829 
  beta     625.0260u  770.1461u  474.7926u  474.7926u    1.0231m  839.4280u
  gam eff  513.6333m  538.0631m  538.0631m  538.0631m    1.0081     1.0081 
  gm       300.3617p  550.1700f  632.1888f    1.4186p   29.6432p    1.7887p
  gds        5.4659p    5.9001f    1.3849m    1.3849m  538.1445f    1.7528m
  gmb       26.7896p  218.1145f  371.0578f  832.6365f   10.9960p    1.3871p
  cdtot     18.6717f   18.4727f    6.4111f   29.8321f    1.1011f   11.1049f
  cgtot      8.7336f   12.3032f   21.0239f   21.0239f    5.5088f    9.9552f
  cstot      3.3154f    3.3154f    8.9634f    6.4111f    6.7565f    2.5830f
  cbtot     17.5216f   21.0677f    4.6951f   25.5637f    9.4210f   10.6453f
  cgs        3.2660f    3.2918f   10.1436f    9.7725f    1.0673f    3.6333f
  cgd        3.3023f    3.1010f    9.7725f   10.1436f  675.8304a    4.5925f



 subckt                                                                    
 element  0:m1150    0:m1151    0:m1152    0:m1153    0:m1154    0:m1155   
 model    0:cmosntt  0:cmosntt  0:cmosntt  0:cmosntt  0:cmosptt  0:cmosptt 
 region       Linear     Cutoff     Cutoff     Cutoff     Linear     Linear
  id        27.2061p -1.271e-19 -1.026e-19    1.2745p   11.2745p  -26.3870p
  ibs        0.         0.         0.         0.         0.         0.     
  ibd        0.         0.         0.         0.         0.         0.     
  vgs        5.0000   -31.0421n  -13.8700n    0.        -5.0000    -5.0000 
  vds       15.5211n  -17.1722n  -13.8700n    5.0000     8.1412n  -39.8136n
  vbs      -15.5211n  -31.0421n  -13.8700n    0.         8.1412n    0.     
  vth      617.1463m  617.1463m  617.1463m  554.4367m -849.8368m -855.7622m
  vdsat      1.4338    43.6814m   43.6814m   43.6776m   -2.3353    -2.3271 
  vod        4.3829  -617.1463m -617.1463m -554.4367m   -4.1502    -4.1442 
  beta     839.4280u    1.0202m    1.0202m    1.0231m  474.7926u  228.3604u
  gam eff    1.0081     1.0081     1.0081     1.0081   538.0631m  536.7083m
[...]
   61.75000n    1.5865m    1.5622m    5.0000  
   61.80000n    1.2620m    1.2355m    5.0000  
   61.85000n  970.4831u  947.6111u    5.0000  
   61.90000n  752.6494u  733.9938u    5.0000  
   61.95000n  572.2362u  557.4956u    5.0000  
   62.00000n  441.3973u  429.8213u    5.0000  
   62.05000n  336.2264u  327.2720u    5.0000  
   62.10000n  256.1888u  249.3281u    5.0000  
   62.15000n  201.9290u  196.7923u    5.0000  
   62.20000n  160.0414u  156.2335u    5.0000  
   62.25000n  126.5643u  123.7865u    5.0000  
   62.30000n  102.3835u  100.3118u    5.0000  
   62.35000n   85.4512u   83.9254u    5.0000  
   62.40000n   65.0105u   63.5249u    5.0000  
   62.45000n   40.8595u   38.8797u    5.0000  
   62.50000n   19.5312u   17.7530u    5.0000  
   62.55000n    6.3814u    5.4499u    5.0000  
   62.60000n    4.2607u    5.0223u    5.0000  
   62.65000n    3.2143u    5.3902u    3.7500  
   62.70000n    8.9924u   13.1248u    2.5000  
   62.75000n   13.4192u   17.5440u    1.2500  
   62.80000n    8.8705u    8.4449u  285.9935f 
   62.85000n -111.5236u -134.0514u    0.      
   62.90000n -222.3615u -253.4493u    0.      
   62.95000n -236.4359u -254.3620u    0.      
   63.00000n -185.9951u -183.8903u    0.      
   63.05000n -172.4811u -164.5762u    0.      
   63.10000n -166.2143u -158.4092u    0.      
   63.15000n -146.3795u -138.9012u    0.      
   63.20000n  -40.3402u  -28.1492u    0.      
   63.25000n   30.3738u   41.3913u    0.      
   63.30000n   77.1979u   84.8148u    0.      
   63.35000n  100.9691u  105.5441u    0.      
   63.40000n  115.3880u  118.2804u    0.      
   63.45000n  126.0533u  127.9167u    0.      
   63.50000n  133.1383u  134.5961u    0.      
   63.55000n  138.1465u  139.0129u    0.      
   63.60000n  142.0463u  144.0687u    0.      
   63.65000n  144.7255u  149.9368u    0.      
   63.70000n  153.5272u  159.2404u    0.      
   63.75000n  168.2682u  171.5975u    0.      
   63.80000n  189.0843u  187.0721u    0.      
   63.85000n  207.5757u  207.3856u    0.      
   63.90000n  233.7783u  236.9664u    0.      
   63.95000n  265.4725u  271.7706u    0.      
   64.00000n  310.2275u  315.5167u    0.      
   64.05000n  365.4491u  366.4286u    0.      
   64.10000n  468.8490u  472.5574u    0.      
   64.15000n  617.6166u  625.3868u    0.      
   64.20000n  835.9845u  849.6842u    0.      
   64.25000n    1.1102m    1.1332m    0.      
   64.30000n    1.3736m    1.4041m    0.      
   64.35000n    1.6014m    1.6353m    0.      
   64.40000n    1.7364m    1.7561m    0.      
   64.45000n    1.8214m    1.8016m    0.      
   64.50000n    1.8890m    1.8104m    0.      
   64.55000n    1.9479m    1.7504m    0.      
   64.60000n    1.9169m    1.6032m    0.      
   64.65000n    1.4805m    1.2584m    0.      
   64.70000n  862.8868u  771.2884u    0.      
   64.75000n   30.6840u   99.1494u    0.      
   64.80000n -588.5741u -489.2135u    0.      
   64.85000n   -1.0271m -940.1948u    0.      
   64.90000n   -1.3262m   -1.2927m    0.      
   64.95000n   -1.3836m   -1.4778m    0.      
   65.00000n   -1.3257m   -3.4244m  330.8722f 
   65.05000n   -1.2319m   -5.4547m    1.2500  
   65.10000n   -1.1426m   -5.3188m    2.5000  
   65.15000n   -1.0056m   -4.6709m    3.7500  
   65.20000n -805.9144u   -3.8330m    5.0000  
   65.25000n -419.5369u   -3.0823m    5.0000  
   65.30000n -214.5229u   -3.1203m    5.0000  
   65.35000n -221.4010u   -3.8602m    5.0000  
   65.40000n -276.2109u   -4.7583m    5.0000  
   65.45000n -323.1263u   -5.5259m    5.0000  
   65.50000n -356.3799u   -5.9416m    5.0000  
   65.55000n -372.6807u   -5.6161m    5.0000  
   65.60000n -386.1358u   -4.1733m    5.0000  
   65.65000n -397.3201u   -1.8390m    5.0000  
   65.70000n -419.3166u  400.6946u    5.0000  
   65.75000n -465.1765u    2.4315m    5.0000  
   65.80000n -586.1824u    3.4561m    5.0000  
   65.85000n -800.3142u    3.2334m    5.0000  
   65.90000n   -1.0175m    3.0093m    5.0000  
   65.95000n   -1.3672m    2.7197m    5.0000  
   66.00000n   -1.7169m    2.4301m    5.0000  
   66.05000n   -1.9437m    2.1322m    5.0000  
   66.10000n   -2.1482m    1.8329m    5.0000  
   66.15000n   -2.3526m    1.5336m    5.0000  
   66.20000n   -2.2559m    1.1685m    5.0000  
   66.25000n   -2.1170m  794.2395u    5.0000  
   66.30000n   -1.9781m  419.9638u    5.0000  
   66.35000n   -1.8391m   45.6882u    5.0000  
   66.40000n   -1.1454m  355.4965u    5.0000  
   66.45000n -125.3248u    1.0678m    5.0000  
   66.50000n  894.7982u    1.7802m    5.0000  
   66.55000n    1.9149m    2.4925m    5.0000  
   66.60000n    2.1976m    2.6109m    5.0000  
   66.65000n    2.3135m    2.5950m    5.0000  
   66.70000n    2.4294m    2.5791m    5.0000  
   66.75000n    2.0744m    2.1493m    5.0000  
   66.80000n    1.5614m    1.5807m    5.0000  
   66.85000n  752.6046u  752.0936u    5.0000  
   66.90000n  408.4952u  413.3059u    5.0000  
   66.95000n  383.5198u  410.9345u    5.0000  
   67.00000n  355.9495u  404.5827u    5.0000  
   67.05000n  266.0189u  302.5683u    5.0000  
   67.10000n  176.0883u  200.5540u    5.0000  
   67.15000n  142.9722u  166.1900u    5.0000  
   67.20000n  116.0498u  139.2010u    5.0000  
   67.25000n   95.0424u  117.2397u    5.0000  
   67.30000n   78.3329u   98.9317u    5.0000  
   67.35000n   61.0685u   79.8762u    5.0000  
   67.40000n   41.3366u   57.4973u    5.0000  
   67.45000n   21.6047u   35.1184u    5.0000  
   67.50000n    8.6899u   21.5121u    5.0000  
   67.55000n    1.1423u   14.8126u    5.0000  
   67.60000n   -6.4053u    8.1132u    5.0000  
   67.65000n -917.1579n   11.0629u    3.7500  
   67.70000n    5.2172u   17.5338u    2.5000  
   67.75000n    9.2649u   20.1129u    1.2500  
   67.80000n    6.1520u   13.0193u    0.      
   67.85000n -112.1106u -101.4408u    0.      
   67.90000n -220.3057u -179.4769u    0.      
   67.95000n -227.7110u -159.2263u    0.      
   68.00000n -201.7553u -109.9960u    0.      
   68.05000n -167.5617u  -62.4160u    0.      
   68.10000n -148.4831u  -47.1163u    0.      
   68.15000n -149.9532u  -75.7018u    0.      
   68.20000n  -66.4197u   -4.2473u    0.      
   68.25000n   38.9624u   93.1535u    0.      
   68.30000n   69.2441u  111.6094u    0.      
   68.35000n   99.5257u  130.0653u    0.      
   68.40000n  119.2917u  141.1399u    0.      
   68.45000n  124.1814u  141.7723u    0.      
   68.50000n  129.0711u  142.4046u    0.      
   68.55000n  133.9607u  143.0370u    0.      
   68.60000n  138.8504u  143.6693u    0.      
   68.65000n  153.1890u  157.0825u    0.      
   68.70000n  169.4392u  173.0813u    0.      
   68.75000n  185.6894u  189.0801u    0.      
   68.80000n  201.9396u  205.0789u    0.      
   68.85000n  218.1898u  221.0777u    0.      
   68.90000n  234.4400u  237.0765u    0.      
   68.95000n  250.6902u  253.0752u    0.      
   69.00000n  266.9404u  269.0740u    0.      
   69.05000n  283.1906u  285.0728u    0.      
   69.10000n  443.4377u  447.5751u    0.      
   69.15000n  609.0719u  615.5582u    0.      
   69.20000n  774.7062u  783.5414u    0.      
   69.25000n  940.3404u  951.5246u    0.      
   69.30000n    1.1060m    1.1195m    0.      
   69.35000n    1.2716m    1.2875m    0.      
   69.40000n    1.4372m    1.4555m    0.      
   69.45000n    1.6029m    1.6235m    0.      
   69.50000n    1.7685m    1.7914m    0.      
   69.55000n    1.9341m    1.9594m    0.      
   69.60000n    1.7241m    1.7364m    0.      
   69.65000n    1.3721m    1.3656m    0.      
   69.70000n    1.0201m  994.8429u    0.      
   69.75000n  668.1611u  624.0705u    0.      
   69.80000n  316.1800u  253.2981u    0.      
   69.85000n -471.4396u -543.5650u    0.      
   69.90000n   -1.0234m   -1.0824m    0.      
   69.95000n   -1.2632m   -1.2969m    0.      
   70.00000n   -1.3289m   -1.3399m  330.8722f 
   70.05000n   -1.2834m   -1.2819m    1.2500  
   70.10000n   -1.1978m   -1.1899m    2.5000  
   70.15000n   -1.0809m   -1.0691m    3.7500  
   70.20000n -856.7854u -836.1107u    5.0000  
   70.25000n -438.6693u -405.2823u    5.0000  
   70.30000n -253.5687u -231.9246u    5.0000  
   70.35000n -242.8126u -236.3753u    5.0000  
   70.40000n -298.4301u -299.9824u    5.0000  
   70.45000n -356.7416u -361.1277u    5.0000  
   70.50000n -387.9324u -391.5479u    5.0000  
   70.55000n -408.1697u -411.1034u    5.0000  
   70.60000n -419.5713u -421.8949u    5.0000  
   70.65000n -436.1169u -438.5155u    5.0000  
   70.70000n -459.1881u -462.0036u    5.0000  
   70.75000n -496.0724u -499.7779u    5.0000  
   70.80000n -596.8010u -604.6533u    5.0000  
   70.85000n -769.0891u -784.7384u    5.0000  
   70.90000n   -1.0711m   -1.0962m    5.0000  
   70.95000n   -1.4386m   -1.4713m    5.0000  
   71.00000n   -1.7541m   -1.7836m    5.0000  
   71.05000n   -2.0156m   -2.0429m    5.0000  
   71.10000n   -2.2261m   -2.2500m    5.0000  
   71.15000n   -2.3466m   -2.3638m    5.0000  
   71.20000n   -2.3600m   -2.3660m    5.0000  
   71.25000n   -2.2483m   -2.2423m    5.0000  
   71.30000n   -2.0750m   -2.0566m    5.0000  
   71.35000n   -1.5069m   -1.4676m    5.0000  
   71.40000n -938.8910u -878.5645u    5.0000  
   71.45000n  116.4497u  196.5704u    5.0000  
   71.50000n    1.2045m    1.3044m    5.0000  
   71.55000n    2.1775m    2.2887m    5.0000  
   71.60000n    2.2897m    2.3498m    5.0000  
   71.65000n    2.4020m    2.4109m    5.0000  
   71.70000n    2.1235m    2.1044m    5.0000  
   71.75000n    1.6111m    1.5779m    5.0000  
   71.80000n    1.0987m    1.0514m    5.0000  
   71.85000n  586.3449u  524.8738u    5.0000  
   71.90000n  408.3129u  361.5267u    5.0000  
   71.95000n  357.4933u  336.3543u    5.0000  
   72.00000n  306.6737u  311.1818u    5.0000  
   72.05000n  262.8546u  273.0422u    5.0000  
   72.10000n  222.4019u  228.6671u    5.0000  
   72.15000n  181.9492u  184.2920u    5.0000  
   72.20000n  141.4965u  139.9169u    5.0000  
   72.25000n  101.0437u   95.5418u    5.0000  
   72.30000n   60.5910u   51.1667u    5.0000  
   72.35000n   20.1383u    6.7916u    5.0000  
   72.40000n    7.2646u   -3.3385u    5.0000  
   72.45000n    1.7030u   -4.3892u    5.0000  
   72.50000n   -3.8587u   -5.4398u    5.0000  
   72.55000n   -9.4203u   -6.4905u    5.0000  
   72.60000n  -14.9819u   -7.5412u    5.0000  
   72.65000n   78.2802n    8.2281u    3.7500  
   72.70000n    2.6262u    8.7562u    2.5000  
   72.75000n    1.3929u  -89.1135n    1.2500  
   72.80000n   -5.3451u  -20.1496u    0.      
   72.85000n -101.3615u -137.8764u    0.      
   72.90000n -212.7899u -257.7080u    0.      
   72.95000n -215.1047u -240.6650u    0.      
   73.00000n -204.5915u -207.9480u    0.      
   73.05000n -185.0590u -172.0988u    0.      
   73.10000n -161.7581u -139.3840u    0.      
   73.15000n -132.4581u -114.5098u    0.      
   73.20000n  -57.8146u  -40.6763u    0.      
   73.25000n   44.8553u   63.4184u    0.      
   73.30000n   75.1967u   89.3266u    0.      
   73.35000n   98.1254u  107.2216u    0.      
   73.40000n  120.2341u  124.4995u    0.      
   73.45000n  125.3692u  129.0029u    0.      
   73.50000n  130.5044u  133.5063u    0.      
   73.55000n  135.6396u  138.0096u    0.      
   73.60000n  140.7747u  142.5130u    0.      
   73.65000n  150.8582u  152.1929u    0.      
   73.70000n  174.2561u  175.8013u    0.      
   73.75000n  197.6540u  199.4097u    0.      
   73.80000n  221.0519u  223.0181u    0.      
   73.85000n  244.4498u  246.6266u    0.      
   73.90000n  267.8477u  270.2350u    0.      
   73.95000n  291.2456u  293.8434u    0.      
   74.00000n  314.6436u  317.4518u    0.      
   74.05000n  338.0415u  341.0602u    0.      
   74.10000n  361.4394u  364.6686u    0.      
   74.15000n  494.4758u  499.6925u    0.      
   74.20000n  690.8322u  699.0628u    0.      
   74.25000n  887.1885u  898.4330u    0.      
   74.30000n    1.0835m    1.0978m    0.      
   74.35000n    1.2799m    1.2972m    0.      
   74.40000n    1.4763m    1.4965m    0.      
   74.45000n    1.6726m    1.6959m    0.      
   74.50000n    1.8690m    1.8953m    0.      
   74.55000n    2.0653m    2.0947m    0.      
   74.60000n    1.7479m    1.7608m    0.      
   74.65000n    1.3615m    1.3553m    0.      
   74.70000n  974.9912u  949.8436u    0.      
   74.75000n  588.5228u  544.3460u    0.      
   74.80000n  202.0544u  138.8485u    0.      
   74.85000n -234.8814u -304.0602u   43.3009f 
   74.90000n -733.0721u -792.3766u  139.1580f 
   74.95000n   -1.2313m   -1.2807m  235.0151f 
   75.00000n   -1.7295m   -1.7690m  330.8722f 
   75.05000n   -1.4879m   -1.4877m    1.2500  
   75.10000n   -1.3008m   -1.2882m    2.5000  
   75.15000n   -1.0917m   -1.0748m    3.7500  
   75.20000n -872.1272u -851.3100u    5.0000  
   75.25000n -526.4340u -498.1139u    5.0000  
   75.30000n -307.4158u -284.8724u    5.0000  
   75.35000n -277.0481u -268.3433u    5.0000  
   75.40000n -317.6002u -316.8967u    5.0000  
   75.45000n -358.9528u -361.3000u    5.0000  
   75.50000n -391.0344u -393.9263u    5.0000  
   75.55000n -409.5166u -411.9818u    5.0000  
   75.60000n -427.3335u -429.5873u    5.0000  
   75.65000n -444.6193u -446.8340u    5.0000  
   75.70000n -475.1152u -477.7459u    5.0000  
   75.75000n -599.9055u -606.2019u    5.0000  
   75.80000n -724.6958u -734.6578u    5.0000  
   75.85000n -849.4861u -863.1138u    5.0000  
   75.90000n -990.2068u   -1.0071m    5.0000  
   75.95000n   -1.2172m   -1.2355m    5.0000  
   76.00000n   -1.4442m   -1.4638m    5.0000  
   76.05000n   -1.6713m   -1.6921m    5.0000  
   76.10000n   -1.8983m   -1.9204m    5.0000  
   76.15000n   -2.1253m   -2.1488m    5.0000  
   76.20000n   -2.3523m   -2.3771m    5.0000  
   76.25000n   -2.4401m   -2.4612m    5.0000  
   76.30000n   -1.9136m   -1.9095m    5.0000  
   76.35000n   -1.3871m   -1.3578m    5.0000  
   76.40000n -860.6873u -806.1065u    5.0000  
   76.45000n -334.2310u -254.3932u    5.0000  
   76.50000n  222.1495u  303.6313u    5.0000  
   76.55000n  792.4422u  864.5899u    5.0000  
   76.60000n    1.3627m    1.4255m    5.0000  
   76.65000n    1.9330m    1.9865m    5.0000  
   76.70000n    2.5033m    2.5475m    5.0000  
   76.75000n    2.5429m    2.5649m    5.0000  
   76.80000n    1.9428m    1.9273m    5.0000  
   76.85000n    1.3427m    1.2896m    5.0000  
   76.90000n  742.6188u  651.9679u    5.0000  
   76.95000n  506.6029u  435.7098u    5.0000  
   77.00000n  296.4443u  249.3795u    5.0000  
   77.05000n   86.2857u   63.0491u    5.0000  
   77.10000n -123.8729u -123.2812u    5.0000  
   77.15000n -173.5275u -160.5245u    5.0000  
   77.20000n  -44.4872u  -31.7838u    5.0000  
   77.25000n   84.5532u   96.9569u    5.0000  
   77.30000n  213.5936u  225.6975u    5.0000  
   77.35000n  275.0924u  285.1761u    5.0000  
   77.40000n  183.2100u  187.3665u    5.0000  
   77.45000n   91.3277u   89.5569u    5.0000  
   77.50000n -554.6876n   -8.2527u    5.0000  
   77.55000n  -92.4370u -106.0623u    5.0000  
   77.60000n -184.3194u -203.8720u    5.0000  
   77.65000n  -46.5961u  -42.2522u    3.7500  
   77.70000n -163.8421n    8.6180u    2.5000  
   77.75000n    3.7730u    8.1441u    1.2500  
   77.80000n   -4.1677u   -8.3061u    0.      
   77.85000n -100.7540u -125.8971u    0.      
   77.90000n -213.2281u -250.4335u    0.      
   77.95000n -216.3381u -237.7345u    0.      
   78.00000n -208.8015u -211.9177u    0.      
   78.05000n -182.4799u -173.2990u    0.      
   78.10000n -158.5441u -143.3698u    0.      
   78.15000n -138.2870u -126.7129u    0.      
   78.20000n  -56.1614u  -43.3066u    0.      
   78.25000n   47.7060u   63.5291u    0.      
   78.30000n   73.6829u   84.9287u    0.      
   78.35000n   99.6598u  106.3283u    0.      
   78.40000n  119.5410u  122.8127u    0.      
   78.45000n  124.6941u  127.4208u    0.      
   78.50000n  129.8471u  132.0290u    0.      
   78.55000n  135.0002u  136.6372u    0.      
   78.60000n  140.1533u  141.2453u    0.      
   78.65000n  154.5655u  155.6375u    0.      
   78.70000n  172.3882u  173.6334u    0.      
   78.75000n  190.2110u  191.6294u    0.      
   78.80000n  208.0337u  209.6253u    0.      
   78.85000n  225.8564u  227.6213u    0.      
   78.90000n  243.6791u  245.6172u    0.      
   78.95000n  261.5019u  263.6132u    0.      
   79.00000n  279.3246u  281.6091u    0.      
   79.05000n  297.1473u  299.6051u    0.      
   79.10000n  426.8620u  431.1654u    0.      
   79.15000n  601.6104u  608.4324u    0.      
   79.20000n  776.3587u  785.6994u    0.      
   79.25000n  951.1070u  962.9664u    0.      
   79.30000n    1.1259m    1.1402m    0.      
   79.35000n    1.3006m    1.3175m    0.      
   79.40000n    1.4754m    1.4948m    0.      
   79.45000n    1.6501m    1.6720m    0.      
   79.50000n    1.8248m    1.8493m    0.      
   79.55000n    1.9996m    2.0266m    0.      
   79.60000n    1.6764m    1.6870m    0.      
   79.65000n    1.3040m    1.2964m    0.      
   79.70000n  931.6598u  905.7776u    0.      
   79.75000n  559.2899u  515.1678u    0.      
   79.80000n  186.9199u  124.5580u    0.      
   79.85000n -258.2220u -322.4437u    0.      
   79.90000n -748.7991u -804.6537u    0.      
   79.95000n   -1.2394m   -1.2869m    0.      
   80.00000n   -1.7300m   -1.7691m    0.      
y
 vmax=   failed  from=   failed     to=   failed
 vmin=   failed  from=   failed     to=   failed
   trise= failed                         measure parameter failed
   tfall= failed                         measure parameter failed
  **warning** (prjMagic.sp:1920) Trigger event is undefined. Please specify a valid event. Measure failed.
   tplh= failed                          trig= not found
   tphl= failed                          trig= not found
 avgpower=  24.4823m  from=   0.             to=  80.0000n
 peakpwr=  93.2666m    at=  10.0000n
             from=   0.            to=  80.0000n

          ***** job concluded
1****** HSPICE -- K-2015.06 linux64 (May 25 2015) ******                        
 ******  
 *********************************************************

 ****** job statistics summary tnom=  25.000 temp=  70.000 ******
  
  
 ******  Machine Information  ******
 CPU:
 model name	: Intel(R) Xeon(R) CPU E5-4617 0 @ 2.90GHz
 cpu MHz	: 2900.000
  
 OS:
 Linux version 2.6.32-573.3.1.el6.x86_64 (mockbuild@x86-029.build.eng.bos.redhat.com) (gcc version 4.4.7 20120313 (Red Hat 4.4.7-16) (GCC) ) #1 SMP Mon Aug 10 09:44:54 EDT 2015


  ******  HSPICE Threads Information  ******

  Command Line Threads Count :     1
  Available CPU Count        :    12
  Actual Threads Count       :     1


  ****** Statistics of Ignored Elements ******
  Capacitors      :       1

  ******  Circuit Statistics  ******
  # nodes       =     353 # elements   =     854
  # resistors   =       0 # capacitors =     219 # inductors   =       0
  # mutual_inds =       0 # vccs       =       0 # vcvs        =       0
  # cccs        =       0 # ccvs       =       0 # volt_srcs   =      21
  # curr_srcs   =       0 # diodes     =       0 # bjts        =       0
  # jfets       =       0 # mosfets    =     614 # U elements  =       0
  # T elements  =       0 # W elements =       0 # B elements  =       0
  # S elements  =       0 # P elements =       0 # va device   =       0
  # vector_srcs =       0 # N elements =       0


  ******  Runtime Statistics (seconds)  ******

  analysis           time    # points   tot. iter  conv.iter
  op point           0.10           1          27
  dc sweep           0.38          51         228
  transient          2.50        1601        3141        1008 rev=        50
  readin             0.06
  errchk             0.02
  setup              0.01
  output             0.00


           peak memory used        344.95 megabytes
           total cpu time            3.10 seconds
           total elapsed time        2.92 seconds
           job started at     20:26:27 12/03/2015
           job ended   at     20:26:30 12/03/2015


 lic: Release hspice token(s) 
 lic: total license checkout elapse time:        0.20(s)
