$DATA1 SOURCE='HSPICE' VERSION='K-2015.06 linux64'
.TITLE '*********************************************************'
 vmax             vmin             trise            tfall           
 tplh             tphl             avg_delay        avgpower        
 peakpwr          temper           alter#          
    failed           failed           failed           failed       
    failed           failed           failed         9.156e-03      
    0.1803          70.0000        1               
