Using: /programs/synopsys/hspice_vK-2015.06/hspice/linux64/hspice prjMagic.sp
 ****** HSPICE -- K-2015.06 linux64 (May 25 2015) ******                        
  Copyright (c) 1986 - 2015 by Synopsys, Inc. All Rights Reserved.              
  This software and the associated documentation are proprietary
  to Synopsys, Inc. This software may only be used in accordance
  with the terms and conditions of a written license agreement with
  Synopsys, Inc. All other use, reproduction, or distribution of
  this software is strictly prohibited.
  Input File: prjMagic.sp                                                       
  Command line options: /programs/synopsys/hspice_vK-2015.06/hspice/linux64/hspice prjMagic.sp
 lic:  
 lic: FLEXlm: v11.2.1 
 lic: USER:   khobble              HOSTNAME: gondor.ecen.okstate.edu 
 lic: HOSTID: "2c44fd8302d0"       PID:      61327 
 lic: Using FLEXlm license file: 
 lic: 27020@avatar.ecen.okstate.edu 
 lic: Checkout 1 hspice 
 lic: License/Maintenance for hspice will expire on 27-jan-2016/2014.09 
 lic: 3(in_use)/50(total) FLOATING license(s) on SERVER 27020@avatar.ecen.okstate.edu 
 lic:   
 Init: read install configuration file: /programs/synopsys/hspice_vK-2015.06/hspice/meta.cfg
  **warning** (prjMagic.sp:1899) Variable va does not exists in the netlist for DC   analysis. Please specify the variable which is present in the netlist. va assumed to be new variable for DC   analysis however results may not be desired.
1****** HSPICE -- K-2015.06 linux64 (May 25 2015) ******                        
 ******  
 *********************************************************

 ****** mos   model parameters tnom=  25.000 temp=  25.000 ******
 ***************************************************************************
 ***        model parameters  model name:   0:cmosntt  model type:nmos   ***
 ***************************************************************************

   *** general parameters ***
    deriv=   0.           

   ***  level 49  model parameters  ***

      hspver=    2006.03               level=         49         
     version=        3.1            paramchk=          0         
      apwarn=          1                lite=          0         
      vgslim=          0             binUnit=          1         
      capMod=          2               xpart=        0.5         
      mobMod=          1              nqsMod=          0         
      stiMod=          0                 elm=          5         
    sfvtflag=          0                 tox=   1.39e-08 meter   
          xj=    1.5e-07 meter       binflag=          0         
        lmin=          0 meter          lmax=          0 meter   
        wmin=          0 meter          wmax=          0 meter   
        lref=          0 meter          wref=          0 meter   
        lint=3.59761e-08 meter          wint=2.47235e-07 meter   
       lmult=          1               wmult=          1         
          ll=          0                 lln=          1         
          lw=          0                 lwn=          1         
         lwl=          0                  wl=          0         
         wln=          1                  ww=          0         
         wwn=          1                 wwl=          0         
         dwg=-1.28716e-08 m/V             dwb=5.30659e-08 m/V^1/2 
          xl=          0                  xw=          0         
          a0=   0.610354                 ags=   0.119461 V^-1    
          b0=2.67476e-06 meter            b1=      5e-06 meter   
        keta=-0.00264068 V^-1           voff=          0 V       
       ngate=          0 cm^-3           vbx=          0 V       
         vbm=         -3 V                xt=   1.55e-07 meter   
        vth0=   0.669606 V               nch=    1.7e+17 cm^-3   
        nsub=      6e+16 cm^-3           nlx=      1e-09 meter   
      gamma1=          0 V^-1/2       gamma2=          0 V^-1/2  
          k1=   0.835161 V^1/2            k2= -0.0839158         
          k3=    23.1024                 k3b=   -7.68411 V^-1    
          w0=      1e-08 meter          dvt0=    2.90472         
        dvt1=   0.430269                dvt2=  -0.134857 V^-1    
       dvt0w=          0 meter^-1      dvt1w=          0 meter^-1
       dvt2w=          0 V^-1           dsub=   0.254346         
        eta0=  0.0246738                etab=-0.00140612 V^-1    
          u0=     458.44 cm^2/V/sec         ua=      1e-13 m/V     
          ub= 1.4855e-18 (m/V)^2          uc=1.62994e-11 V^-1    
        vsat=     164399 m/sec            a1=8.21959e-05 v^-1    
          a2=   0.356479               delta=       0.01 V       
        rdsw=    1387.11 ohm-um         prwg=  0.0299916 V^-1    
        prwb=  0.0363981 V^-1/2           wr=          1         
        pclm=    2.59452             pdiblc1=  -0.428234         
     pdiblc2= 0.00231174             pdiblcb= -0.0272914 V^-1    
      pscbe1=5.59862e+08 V/m          pscbe2=5.46165e-05 V/m     
       drout=   0.728357                pvag=          0         
     nfactor=   0.836558                cdsc=    0.00024 f/m^2   
       cdscb=          0 f/V/m^2       cdscd=          0 f/V/m^2 
         cit=          0 f/m^2        alpha0=          0 m/V     
       beta0=         30 V               dlc=3.59761e-08 meter   
         dwc=2.47235e-07 meter           clc=      1e-07 meter   
         cle=        0.6                cgso=      2e-10 f/m     
        cgdo=      2e-10 f/m            cgbo=      1e-09 f/m     
        cgsl=          0 f/m            cgdl=          0 f/m     
      ckappa=        0.6                  cf=          0 f/m     
        tnom=     300.15 K               kt1=    -0.2501 V       
        kt1l=  -2.58e-09                 kt2=          0         
         ute=         -1                 ua1=    5.4e-10 m/V     
         ub1=   -4.8e-19 (m/V)^2         uc1=   -7.5e-11 m/V^2   
          at=     100000 m/s             prt=      8.621         
         using Berkeley noise model       noiMod=          1         
        noia=      1e+20                noib=      50000         
        noic=   -1.4e-12                  em=    4.1e+07         
          ef=          1                  af=          1         
          kf=          0              gdsnoi=-1.23457e-29         
         using Hspice diodes            using ACM 
         acm=         0                 hdif=         0 meter    
        ldif=         0 meter             js=         0 amp/m^2  
         jsw=         0 amp/m            xti=         0          
           n=         1                   cj=0.000419777 f/m^2    
          mj=  0.451504                   pb=      0.99 V        
        cjsw=3.24272e-10 f/m             mjsw=  0.115399          
         php=      0.99 V               pbsw (not used)           
      cjgate=3.24272e-10 f/m            cjswg (not used)           
       mjswg (not used)                 pbswg (not used)           
       lketa= 0.00117319               wketa= -0.0248758         
       pvth0=  0.0585501                 pk2= -0.0299638         
       prdsw=    133.286         
 ***************************************************************************
 ***        model parameters  model name:   0:cmosptt  model type:pmos   ***
 ***************************************************************************

   *** general parameters ***
    deriv=   0.           

   ***  level 49  model parameters  ***

      hspver=    2006.03               level=         49         
     version=        3.1            paramchk=          0         
      apwarn=          1                lite=          0         
      vgslim=          0             binUnit=          1         
      capMod=          2               xpart=        0.5         
      mobMod=          1              nqsMod=          0         
      stiMod=          0                 elm=          5         
    sfvtflag=          0                 tox=   1.39e-08 meter   
          xj=    1.5e-07 meter       binflag=          0         
        lmin=          0 meter          lmax=          0 meter   
        wmin=          0 meter          wmax=          0 meter   
        lref=          0 meter          wref=          0 meter   
        lint=5.52881e-08 meter          wint=2.83804e-07 meter   
       lmult=          1               wmult=          1         
          ll=          0                 lln=          1         
          lw=          0                 lwn=          1         
         lwl=          0                  wl=          0         
         wln=          1                  ww=          0         
         wwn=          1                 wwl=          0         
         dwg=-1.60638e-08 m/V             dwb=2.26639e-08 m/V^1/2 
          xl=          0                  xw=          0         
          a0=   0.843002                 ags=   0.132861 V^-1    
          b0=7.11791e-07 meter            b1=      5e-06 meter   
        keta=-0.00367486 V^-1           voff= -0.0558512 V       
       ngate=          0 cm^-3           vbx=          0 V       
         vbm=         -3 V                xt=   1.55e-07 meter   
        vth0=  -0.921435 V               nch=    1.7e+17 cm^-3   
        nsub=      6e+16 cm^-3           nlx=  2.594e-08 meter   
      gamma1=          0 V^-1/2       gamma2=          0 V^-1/2  
          k1=   0.555372 V^1/2            k2= 0.00876333         
          k3=    6.30636                 k3b=  -0.648736 V^-1    
          w0= 1.2807e-08 meter          dvt0=    2.51312         
        dvt1=   0.548054                dvt2=  -0.118649 V^-1    
       dvt0w=          0 meter^-1      dvt1w=          0 meter^-1
       dvt2w=          0 V^-1           dsub=          1         
        eta0=   0.325188                etab= -0.0580325 V^-1    
          u0=    212.017 cm^2/V/sec         ua=2.80712e-09 m/V     
          ub=      1e-21 (m/V)^2          uc=-5.82128e-11 V^-1    
        vsat=     171360 m/sec            a1=4.77502e-05 v^-1    
          a2=        0.3               delta=       0.01 V       
        rdsw=    2837.21 ohm-um         prwg= -0.0363908 V^-1    
        prwb=-1.01672e-05 V^-1/2           wr=          1         
        pclm=    2.24096             pdiblc1=  0.0411445         
     pdiblc2= 0.00335557             pdiblcb= -0.0551797 V^-1    
      pscbe1=6.44809e+09 V/m          pscbe2=6.30085e-10 V/m     
       drout=    0.20369                pvag=          0         
     nfactor=   0.934249                cdsc=    0.00024 f/m^2   
       cdscb=          0 f/V/m^2       cdscd=          0 f/V/m^2 
         cit=          0 f/m^2        alpha0=          0 m/V     
       beta0=         30 V               dlc=5.52881e-08 meter   
         dwc=2.83804e-07 meter           clc=      1e-07 meter   
         cle=        0.6                cgso=    2.9e-10 f/m     
        cgdo=    2.9e-10 f/m            cgbo=      1e-09 f/m     
        cgsl=          0 f/m            cgdl=          0 f/m     
      ckappa=        0.6                  cf=          0 f/m     
        tnom=     300.15 K               kt1=    -0.2942 V       
        kt1l=   1.68e-09                 kt2=          0         
         ute=         -1                 ua1=    4.5e-09 m/V     
         ub1=   -6.3e-18 (m/V)^2         uc1=     -1e-10 m/V^2   
          at=       1000 m/s             prt=     59.494         
         using Berkeley noise model       noiMod=          1         
        noia=    9.9e+18                noib=       2400         
        noic=    1.4e-12                  em=    4.1e+07         
          ef=          1                  af=          1         
          kf=          0              gdsnoi=-1.23457e-29         
         using Hspice diodes            using ACM 
         acm=         0                 hdif=         0 meter    
        ldif=         0 meter             js=         0 amp/m^2  
         jsw=         0 amp/m            xti=         0          
           n=         1                   cj=0.000723553 f/m^2    
          mj=  0.495529                   pb=  0.952735 V        
        cjsw=2.69279e-10 f/m             mjsw=  0.295839          
         php=  0.952735 V               pbsw (not used)           
      cjgate=2.69279e-10 f/m            cjswg (not used)           
       mjswg (not used)                 pbswg (not used)           
       lketa= -0.0042059               wketa= 0.00529216         
       pvth0= 0.00598016                 pk2= 0.00373981         
       prdsw=    14.8598         
  **info** (prjMagic.sp:16) DC voltage reset to initial transient source value              in source        0:va0                 new dc=  0.0000D+00
  **warning** (prjMagic.sp:1476) Both nodes of element c205 are connected together; Line ignored.
 

 Warning: Pd = 0 is less than Weff = 5.50553e-06 in BSIM3 model    0:cmosntt element m1012 with W = 6e-06, L = 6e-07

  **warning** (prjMagic.sp:1936) Unable to find referenced node a; Output variable ignored. Specify a valid node.
  **warning** (prjMagic.sp:1936) .print/.probe statement contains unused output; the unused output is ignored.
  
             
 Warning:'No DC path nodes' occurs 3 times
 No DC path from the following nodes,connected with gdcpath:
 -----------------------
 |Node      |Subckt    |
 |----------+----------|
 |clk       |0         |
 |loadr     |0         |
 |s         |0         |
 -----------------------
              
      
 **info** set option symb=1 internally to help for convergence.
 *****************************************************************
 ******  option summary
 ******
 runlvl  = 3         bypass  = 2         
 **warning** no probe statements specified, thus .sw# omitted
 **info** dc convergence successful at Newton-Raphson method 
1****** HSPICE -- K-2015.06 linux64 (May 25 2015) ******                        
 ******  
 *********************************************************

 ****** operating point information tnom=  25.000 temp=  70.000 ******
 ****** operating point status is all       simulation time is     0.     
    node    =voltage      node    =voltage      node    =voltage

 +0:a0      =   0.      0:a1      =   0.      0:a2      =   0.     
 +0:a3      =   0.      0:a4      =   0.      0:a5      =   0.     
 +0:a6      =   0.      0:a7      =   0.      0:b0      =   0.     
 +0:b1      =   0.      0:bitslice=   5.0000  0:bitslice= 981.6865m
 +0:bitslice=  65.9929n 0:bitslice=   3.7508  0:bitslice=   5.0000 
 +0:bitslice=   3.7508  0:bitslice=  65.5779n 0:bitslice=   1.0340 
 +0:bitslice=  32.9965n 0:bitslice= 125.5202a 0:bitslice= 124.7308a
 +0:bitslice=  32.7890n 0:bitslice=   5.0000  0:bitslice=   5.0000 
 +0:bitslice=   5.0000  0:bitslice=   5.0000  0:bitslice=   5.0000 
 +0:bitslice=  89.3499n 0:bitslice= 999.7953m 0:bitslice=   1.0228 
 +0:bitslice=   6.4958n 0:bitslice=   6.4958n 0:bitslice=  44.6749n
 +0:bitslice=  26.7186n 0:bitslice=  50.8195a 0:bitslice=  22.8429n
 +0:bitslice=   5.0000  0:bitslice=  11.4215n 0:bitslice=   5.0000 
 +0:bitslice=   4.3207  0:bitslice=   1.1572  0:bitslice=   5.0000 
 +0:bitslice= 945.8377m 0:bitslice=   5.0000  0:bitslice=   5.0000 
 +0:bitslice=  15.5211n 0:bitslice=  13.8700n 0:bitslice=   5.0000 
 +0:bitslice= 981.6865m 0:bitslice=  65.9929n 0:bitslice=   3.7508 
 +0:bitslice=   5.0000  0:bitslice=   3.7508  0:bitslice=  65.5779n
 +0:bitslice=   1.0340  0:bitslice=  32.9965n 0:bitslice= 125.5202a
 +0:bitslice= 124.7308a 0:bitslice=  32.7890n 0:bitslice=   5.0000 
 +0:b2      =   0.      0:bitslice=   5.0000  0:bitslice=   5.0000 
 +0:bitslice=   5.0000  0:bitslice=   5.0000  0:bitslice=  89.3499n
 +0:bitslice= 999.7953m 0:bitslice=   1.0228  0:bitslice=   6.4958n
 +0:bitslice=   6.4958n 0:bitslice=  44.6749n 0:bitslice=  26.7186n
 +0:bitslice=  50.8195a 0:bitslice=  22.8429n 0:bitslice=   5.0000 
 +0:bitslice=  11.4215n 0:bitslice=   5.0000  0:bitslice=   4.3207 
 +0:bitslice=   1.1572  0:bitslice=   5.0000  0:bitslice= 945.8377m
 +0:bitslice=   5.0000  0:bitslice=   5.0000  0:bitslice=  15.5211n
 +0:bitslice=  13.8700n 0:bitslice=   5.0000  0:bitslice=   5.0000 
 +0:bitslice=   5.0000  0:bitslice=   5.0000  0:bitslice=  12.7954n
 +0:bitslice=   5.0000  0:bitslice=   5.0000  0:bitslice=   5.0000 
 +0:bitslice=   4.1900  0:bitslice=   1.2439  0:bitslice=   1.2439 
 +0:bitslice=   5.0000  0:bitslice=   4.1900  0:bitslice=  22.8429n
 +0:bitslice=   5.0000  0:bitslice=   5.0000  0:bitslice=   5.0000 
 +0:bitslice=   5.0000  0:bitslice=   5.0000  0:bitslice=   5.0000 
 +0:bitslice=   5.0000  0:bitslice= 826.2692m 0:bitslice= 981.6865m
 +0:bitslice=   1.2439  0:bitslice=   4.1593  0:bitslice=   1.3322 
 +0:bitslice= 328.8009m 0:bitslice=   5.0000  0:b3      =   0.     
 +0:bitslice=   5.0000  0:bitslice=   4.3207  0:bitslice=   5.0000 
 +0:bitslice=  11.4215n 0:bitslice=   1.1572  0:bitslice=  65.9929n
 +0:bitslice=   5.0000  0:bitslice= 945.8377m 0:bitslice=   5.0000 
 +0:bitslice=   5.0000  0:bitslice=  15.5211n 0:bitslice=  13.8700n
 +0:bitslice=   5.0000  0:bitslice= 981.6865m 0:bitslice=  65.9929n
 +0:bitslice=   3.7508  0:bitslice=   3.7508  0:bitslice=   5.0000 
 +0:bitslice=   3.7508  0:bitslice=  65.5779n 0:bitslice=   1.0340 
 +0:bitslice=  32.9965n 0:bitslice= 125.5202a 0:bitslice= 124.7308a
 +0:bitslice=  32.7890n 0:bitslice=   5.0000  0:bitslice=   5.0000 
 +0:bitslice=   5.0000  0:bitslice=   5.0000  0:bitslice=   5.0000 
 +0:bitslice=   5.0000  0:bitslice=  89.3499n 0:bitslice= 999.7953m
 +0:bitslice=   1.0228  0:bitslice=   6.4958n 0:bitslice=   6.4958n
 +0:bitslice=  44.6749n 0:bitslice=  26.7186n 0:bitslice=   3.7508 
 +0:bitslice=  50.8195a 0:bitslice=  22.8429n 0:bitslice=   5.0000 
 +0:bitslice=  11.4215n 0:bitslice=   5.0000  0:bitslice=   4.3207 
 +0:bitslice=   1.1572  0:bitslice=   5.0000  0:bitslice= 945.8377m
 +0:bitslice=   5.0000  0:bitslice=  65.5779n 0:bitslice=   5.0000 
 +0:bitslice=  15.5211n 0:bitslice=  13.8700n 0:bitslice=   5.0000 
 +0:bitslice= 981.6865m 0:b4      =   0.      0:bitslice=  65.9929n
 +0:bitslice=   3.7508  0:bitslice=   5.0000  0:bitslice=   3.7508 
 +0:bitslice=  65.5779n 0:bitslice=   1.0340  0:bitslice=   1.0340 
 +0:bitslice=  32.9965n 0:bitslice= 125.5202a 0:bitslice= 124.7308a
 +0:bitslice=  32.7890n 0:bitslice=   5.0000  0:bitslice=   5.0000 
 +0:bitslice=   5.0000  0:bitslice=   5.0000  0:bitslice=   5.0000 
 +0:bitslice=  32.9965n 0:bitslice=  89.3499n 0:bitslice= 999.7953m
 +0:bitslice=   1.0228  0:bitslice=   6.4958n 0:bitslice=   6.4958n
 +0:bitslice=  44.6749n 0:bitslice=  26.7186n 0:bitslice=  50.8195a
 +0:bitslice=  22.8429n 0:bitslice=   5.0000  0:bitslice= 125.5202a
 +0:bitslice=  11.4215n 0:bitslice=   5.0000  0:bitslice=   4.3207 
 +0:bitslice=   1.1572  0:bitslice=   5.0000  0:bitslice= 945.8377m
 +0:bitslice=   5.0000  0:bitslice=   5.0000  0:bitslice=  15.5211n
 +0:bitslice=  13.8700n 0:bitslice= 124.7308a 0:bitslice=   5.0000 
 +0:bitslice= 981.6865m 0:bitslice=  65.9929n 0:bitslice=   3.7508 
 +0:bitslice=   5.0000  0:bitslice=   3.7508  0:bitslice=  65.5779n
 +0:bitslice=   1.0340  0:bitslice=  32.9965n 0:bitslice= 125.5202a
 +0:bitslice=  32.7890n 0:bitslice= 124.7308a 0:bitslice=  32.7890n
 +0:bitslice=   5.0000  0:bitslice=   5.0000  0:bitslice=   5.0000 
 +0:b5      =   0.      0:bitslice=   5.0000  0:bitslice=   5.0000 
 +0:bitslice=  89.3499n 0:bitslice= 999.7953m 0:bitslice=   1.0228 
 +0:bitslice=   5.0000  0:bitslice=   6.4958n 0:bitslice=   6.4958n
 +0:bitslice=  44.6749n 0:bitslice=  26.7186n 0:bitslice=  50.8195a
 +0:bitslice=  22.8429n 0:bitslice=   5.0000  0:bitslice=  11.4215n
 +0:bitslice=   5.0000  0:bitslice=   4.3207  0:bitslice=   5.0000 
 +0:bitslice=   1.1572  0:bitslice=   5.0000  0:bitslice= 945.8377m
 +0:bitslice=   5.0000  0:bitslice=   5.0000  0:bitslice=  15.5211n
 +0:bitslice=  13.8700n 0:bitslice=   5.0000  0:bitslice= 981.6865m
 +0:bitslice=  65.9929n 0:bitslice=   5.0000  0:bitslice=   3.7508 
 +0:bitslice=   5.0000  0:bitslice=   3.7508  0:bitslice=  65.5779n
 +0:bitslice=   1.0340  0:bitslice=  32.9965n 0:bitslice= 125.5202a
 +0:bitslice= 124.7308a 0:bitslice=  32.7890n 0:bitslice=   5.0000 
 +0:bitslice=   5.0000  0:bitslice=   5.0000  0:bitslice=   5.0000 
 +0:bitslice=   5.0000  0:bitslice=   5.0000  0:bitslice=  89.3499n
 +0:bitslice= 999.7953m 0:bitslice=   1.0228  0:bitslice=   6.4958n
 +0:bitslice=   6.4958n 0:bitslice=  44.6749n 0:bitslice=   5.0000 
 +0:bitslice=  26.7186n 0:bitslice=  50.8195a 0:bitslice=  22.8429n
 +0:bitslice=   5.0000  0:bitslice=  11.4215n 0:b6      =   0.     
 +0:bitslice=   5.0000  0:bitslice=   4.3207  0:bitslice=   1.1572 
 +0:bitslice=   5.0000  0:bitslice= 945.8377m 0:bitslice=  89.3499n
 +0:bitslice=   5.0000  0:bitslice=   5.0000  0:bitslice=  15.5211n
 +0:bitslice=  13.8700n 0:bitslice= 999.7953m 0:bitslice=   1.0228 
 +0:bitslice=   6.4958n 0:bitslice=   6.4958n 0:b7      =   0.     
 +0:bitslice=  44.6749n 0:bitslice=  26.7186n 0:bitslice=  50.8195a
 +0:bitslice=  22.8429n 0:bitslice=   5.0000  0:bitslice=  11.4215n
 +0:bitslice=   5.0000  0:bitslice=   4.3207  0:bitslice=   1.1572 
 +0:bitslice=   5.0000  0:bitslice= 945.8377m 0:bitslice=   5.0000 
 +0:bitslice=   5.0000  0:bitslice=  15.5211n 0:bitslice=  13.8700n
 +0:bitslice=   5.0000  0:bitslice=  31.0421n 0:bitslice=  12.7954n
 +0:bitslice=   5.0000  0:bitslice=  31.0421n 0:bitslice=  12.7954n
 +0:bitslice=   5.0000  0:bitslice=  31.0421n 0:bitslice=  12.7954n
 +0:bitslice=   5.0000  0:bitslice=  31.0421n 0:bitslice=  12.7954n
 +0:bitslice=  12.7954n 0:bitslice=  31.0421n 0:bitslice=  12.7954n
 +0:bitslice=   5.0000  0:bitslice=  31.0421n 0:bitslice=  12.7954n
 +0:bitslice=   5.0000  0:bitslice=  31.0421n 0:bitslice=  12.7954n
 +0:bitslice=   5.0000  0:bitslice=  31.0421n 0:clk     =   0.     
 +0:cout    =  12.7954n 0:inverter=   5.0000  0:inverter=  12.7954n
 +0:loadr   =   0.      0:nand_0/a=   1.1572  0:out0    =   5.0000 
 +0:out1    =   5.0000  0:out2    =   5.0000  0:out3    =   5.0000 
 +0:out4    =   5.7189n 0:out5    =   5.0000  0:out6    =   5.0000 
 +0:out7    =   5.0000  0:s       =   0.      0:subtract=   0.     
 +0:vdd     =   5.0000 


 maximum nodal capacitance=   8.909E-12         on node     0:vdd             

    nodal  capacitance table 

    node    =    cap      node    =    cap      node    =    cap

 +0:a0      =  40.8488f 0:a1      =  40.8488f 0:a2      =  40.8488f
 +0:a3      =  40.8488f 0:a4      =  40.8488f 0:a5      =  40.8488f
 +0:a6      =  40.8488f 0:a7      =  40.8488f 0:b0      =  15.5749f
 +0:b1      =  15.5749f 0:bitslice=  71.5658f 0:bitslice=   7.8724f
 +0:bitslice=  35.2285f 0:bitslice=   9.7130f 0:bitslice=  49.1149f
 +0:bitslice=   8.7099f 0:bitslice=  50.4386f 0:bitslice=   3.5895f
 +0:bitslice=   6.8417f 0:bitslice=   6.2066f 0:bitslice=   6.2066f
 +0:bitslice=   6.8417f 0:bitslice=  84.9104f 0:bitslice=  32.0885f
 +0:bitslice=  58.5367f 0:bitslice=  13.6773f 0:bitslice=  36.4160f
 +0:bitslice=  36.5287f 0:bitslice=   7.1969f 0:bitslice=   7.2042f
 +0:bitslice=  13.3374f 0:bitslice=   6.2066f 0:bitslice=  15.0574f
 +0:bitslice=   4.7127f 0:bitslice=   6.2066f 0:bitslice=  43.6494f
 +0:bitslice=  42.9189f 0:bitslice=  13.6879f 0:bitslice=  42.8184f
 +0:bitslice=   6.9720f 0:bitslice=   7.9353f 0:bitslice=  65.5729f
 +0:bitslice=  14.3903f 0:bitslice=  65.0911f 0:bitslice=  27.4361f
 +0:bitslice=  13.6879f 0:bitslice=   9.0355f 0:bitslice=  71.5658f
 +0:bitslice=   7.8724f 0:bitslice=  35.2285f 0:bitslice=   9.7130f
 +0:bitslice=  49.1149f 0:bitslice=   8.7099f 0:bitslice=  50.4386f
 +0:bitslice=   3.5895f 0:bitslice=   6.8417f 0:bitslice=   6.2066f
 +0:bitslice=   6.2066f 0:bitslice=   6.8417f 0:bitslice=  84.9104f
 +0:b2      =  15.5749f 0:bitslice=  32.0885f 0:bitslice=  58.5367f
 +0:bitslice=  13.6773f 0:bitslice=  36.4160f 0:bitslice=  36.5287f
 +0:bitslice=   7.1969f 0:bitslice=   7.2042f 0:bitslice=  13.3374f
 +0:bitslice=   6.2066f 0:bitslice=  15.0574f 0:bitslice=   4.7127f
 +0:bitslice=   6.2066f 0:bitslice=  43.6494f 0:bitslice=  42.9189f
 +0:bitslice=  13.6879f 0:bitslice=  42.8184f 0:bitslice=   6.9720f
 +0:bitslice=   7.9353f 0:bitslice=  65.5729f 0:bitslice=  14.3903f
 +0:bitslice=  65.0911f 0:bitslice=  27.4361f 0:bitslice=  13.6879f
 +0:bitslice=   9.0355f 0:bitslice=  66.3533f 0:bitslice=  16.6464f
 +0:bitslice=  38.8249f 0:bitslice=  15.1875f 0:bitslice=  48.0227f
 +0:bitslice=  13.6773f 0:bitslice=  51.5362f 0:bitslice=   7.4384f
 +0:bitslice=   3.6404f 0:bitslice=   4.1113f 0:bitslice=   4.1113f
 +0:bitslice=  71.5658f 0:bitslice=   3.6404f 0:bitslice=  90.3398f
 +0:bitslice=  34.7892f 0:bitslice=  57.0740f 0:bitslice=  15.1362f
 +0:bitslice=  37.8748f 0:bitslice=  41.0094f 0:bitslice=  15.1362f
 +0:bitslice=  15.1362f 0:bitslice=  10.3682f 0:bitslice=   7.8724f
 +0:bitslice=   4.1113f 0:bitslice=   9.3427f 0:bitslice=   4.0867f
 +0:bitslice=   4.4803f 0:bitslice=  47.0720f 0:b3      =  15.5749f
 +0:bitslice=  36.9026f 0:bitslice=   6.9720f 0:bitslice=  48.8346f
 +0:bitslice=  13.6879f 0:bitslice=   7.9353f 0:bitslice=  35.2285f
 +0:bitslice=  65.5729f 0:bitslice=  14.3903f 0:bitslice=  65.0911f
 +0:bitslice=  27.4361f 0:bitslice=  13.6879f 0:bitslice=   9.0355f
 +0:bitslice=  71.5658f 0:bitslice=   7.8724f 0:bitslice=  35.2285f
 +0:bitslice=   9.7130f 0:bitslice=   9.7130f 0:bitslice=  49.1149f
 +0:bitslice=   8.7099f 0:bitslice=  50.4386f 0:bitslice=   3.5895f
 +0:bitslice=   6.8417f 0:bitslice=   6.2066f 0:bitslice=   6.2066f
 +0:bitslice=   6.8417f 0:bitslice=  84.9104f 0:bitslice=  32.0885f
 +0:bitslice=  49.1149f 0:bitslice=  58.5367f 0:bitslice=  13.6773f
 +0:bitslice=  36.4160f 0:bitslice=  36.5287f 0:bitslice=   7.1969f
 +0:bitslice=   7.2042f 0:bitslice=  13.3374f 0:bitslice=   6.2066f
 +0:bitslice=  15.0574f 0:bitslice=   4.7127f 0:bitslice=   8.7099f
 +0:bitslice=   6.2066f 0:bitslice=  43.6494f 0:bitslice=  42.9189f
 +0:bitslice=  13.6879f 0:bitslice=  42.8184f 0:bitslice=   6.9720f
 +0:bitslice=   7.9353f 0:bitslice=  65.5729f 0:bitslice=  14.3903f
 +0:bitslice=  65.0911f 0:bitslice=  50.4386f 0:bitslice=  27.4361f
 +0:bitslice=  13.6879f 0:bitslice=   9.0355f 0:bitslice=  71.5658f
 +0:bitslice=   7.8724f 0:b4      =  15.5749f 0:bitslice=  35.2285f
 +0:bitslice=   9.7130f 0:bitslice=  49.1149f 0:bitslice=   8.7099f
 +0:bitslice=  50.4386f 0:bitslice=   3.5895f 0:bitslice=   3.5895f
 +0:bitslice=   6.8417f 0:bitslice=   6.2066f 0:bitslice=   6.2066f
 +0:bitslice=   6.8417f 0:bitslice=  84.9104f 0:bitslice=  32.0885f
 +0:bitslice=  59.7786f 0:bitslice=  12.4355f 0:bitslice=  36.4160f
 +0:bitslice=   6.8417f 0:bitslice=  36.5287f 0:bitslice=   7.1969f
 +0:bitslice=   7.2042f 0:bitslice=  13.3374f 0:bitslice=   6.2066f
 +0:bitslice=  15.0574f 0:bitslice=   4.7127f 0:bitslice=   6.2066f
 +0:bitslice=  43.6494f 0:bitslice=  42.9189f 0:bitslice=   6.2066f
 +0:bitslice=  13.6879f 0:bitslice=  42.8184f 0:bitslice=   6.9720f
 +0:bitslice=   7.9353f 0:bitslice=  65.5729f 0:bitslice=  14.3903f
 +0:bitslice=  65.0911f 0:bitslice=  27.4361f 0:bitslice=  13.6879f
 +0:bitslice=   9.0355f 0:bitslice=   6.2066f 0:bitslice=  71.5658f
 +0:bitslice=   7.8724f 0:bitslice=  35.2285f 0:bitslice=   9.7130f
 +0:bitslice=  49.1149f 0:bitslice=   8.7099f 0:bitslice=  50.4386f
 +0:bitslice=   3.5895f 0:bitslice=   6.8417f 0:bitslice=   6.2066f
 +0:bitslice=   6.8417f 0:bitslice=   6.2066f 0:bitslice=   6.8417f
 +0:bitslice=  84.9104f 0:bitslice=  32.0885f 0:bitslice=  58.5367f
 +0:b5      =  15.5749f 0:bitslice=  13.6773f 0:bitslice=  36.4160f
 +0:bitslice=  36.5287f 0:bitslice=   7.1969f 0:bitslice=   7.2042f
 +0:bitslice=  84.9104f 0:bitslice=  13.3374f 0:bitslice=   6.2066f
 +0:bitslice=  15.0574f 0:bitslice=   4.7127f 0:bitslice=   6.2066f
 +0:bitslice=  43.6494f 0:bitslice=  42.9189f 0:bitslice=  13.6879f
 +0:bitslice=  42.8184f 0:bitslice=   6.9720f 0:bitslice=  32.0885f
 +0:bitslice=   7.9353f 0:bitslice=  65.5729f 0:bitslice=  14.3903f
 +0:bitslice=  65.0911f 0:bitslice=  27.4361f 0:bitslice=  13.6879f
 +0:bitslice=   9.0355f 0:bitslice=  71.5658f 0:bitslice=   7.8724f
 +0:bitslice=  35.2285f 0:bitslice=  58.5367f 0:bitslice=   9.7130f
 +0:bitslice=  49.1149f 0:bitslice=   8.7099f 0:bitslice=  50.4386f
 +0:bitslice=   3.5895f 0:bitslice=   6.8417f 0:bitslice=   6.2066f
 +0:bitslice=   6.2066f 0:bitslice=   6.8417f 0:bitslice=  84.9104f
 +0:bitslice=  13.6773f 0:bitslice=  32.0885f 0:bitslice=  58.5367f
 +0:bitslice=  13.6773f 0:bitslice=  36.4160f 0:bitslice=  36.5287f
 +0:bitslice=   7.1969f 0:bitslice=   7.2042f 0:bitslice=  13.3374f
 +0:bitslice=   6.2066f 0:bitslice=  15.0574f 0:bitslice=  36.4160f
 +0:bitslice=   4.7127f 0:bitslice=   6.2066f 0:bitslice=  43.6494f
 +0:bitslice=  42.9189f 0:bitslice=  13.6879f 0:b6      =  15.5749f
 +0:bitslice=  42.8184f 0:bitslice=   6.9720f 0:bitslice=   7.9353f
 +0:bitslice=  65.5729f 0:bitslice=  14.3903f 0:bitslice=  36.5287f
 +0:bitslice=  65.0911f 0:bitslice=  27.4361f 0:bitslice=  13.6879f
 +0:bitslice=   9.0355f 0:bitslice=   7.1969f 0:bitslice=   7.2042f
 +0:bitslice=  13.3374f 0:bitslice=   6.2066f 0:b7      =  15.5749f
 +0:bitslice=  15.0574f 0:bitslice=   4.7127f 0:bitslice=   6.2066f
 +0:bitslice=  43.6494f 0:bitslice=  42.9189f 0:bitslice=  13.6879f
 +0:bitslice=  42.8184f 0:bitslice=   6.9720f 0:bitslice=   7.9353f
 +0:bitslice=  65.5729f 0:bitslice=  14.3903f 0:bitslice=  65.0911f
 +0:bitslice=  27.4361f 0:bitslice=  13.6879f 0:bitslice=   9.0355f
 +0:bitslice=  44.4402f 0:bitslice= 105.6360f 0:bitslice=  61.9235f
 +0:bitslice=  44.4402f 0:bitslice= 105.6360f 0:bitslice=  62.0027f
 +0:bitslice=  44.4402f 0:bitslice= 105.6360f 0:bitslice=  62.0282f
 +0:bitslice=  44.4402f 0:bitslice= 105.6360f 0:bitslice=  67.6567f
 +0:bitslice=  41.2121f 0:bitslice= 111.3059f 0:bitslice=  62.0089f
 +0:bitslice=  44.4402f 0:bitslice= 105.6360f 0:bitslice=  62.0027f
 +0:bitslice=  44.4402f 0:bitslice= 105.6360f 0:bitslice=  62.0524f
 +0:bitslice=  44.7363f 0:bitslice= 105.6360f 0:clk     =  15.5749f
 +0:cout    =  13.4702f 0:inverter=  41.6482f 0:inverter= 528.2621f
 +0:loadr   =  15.8118f 0:nand_0/a=   7.9353f 0:out0    =  76.4950f
 +0:out1    =  76.4950f 0:out2    =  76.4950f 0:out3    =  76.4950f
 +0:out4    =  65.4093f 0:out5    =  76.4950f 0:out6    =  76.5238f
 +0:out7    =  76.7133f 0:s       = 343.8903f 0:subtract= 579.1153f
 +0:vdd     =   8.9086p

 

 **** voltage sources

 subckt                                                                    
 element  0:va0      0:va1      0:va2      0:va3      0:va4      0:va5     
  volts      0.         0.         0.         0.         0.         0.     
  current    0.         0.         0.         0.         0.         0.     
  power      0.         0.         0.         0.         0.         0.     

 subckt                                                                    
 element  0:va6      0:va7      0:vb0      0:vb1      0:vb2      0:vb3     
  volts      0.         0.         0.         0.         0.         0.     
  current    0.         0.         0.         0.         0.         0.     
  power      0.         0.         0.         0.         0.         0.     

 subckt                                                                    
 element  0:vb4      0:vb5      0:vb6      0:vb7      0:vdd      0:vsub    
  volts      0.         0.         0.         0.         5.0000     0.     
  current    0.         0.         0.         0.        -2.1602n    0.     
  power      0.         0.         0.         0.        10.8008n    0.     

     total voltage source power dissipation=   10.8008n       watts




 **** mosfets


 subckt                                                                    
 element  0:m1000    0:m1001    0:m1002    0:m1003    0:m1004    0:m1005   
 model    0:cmosptt  0:cmosntt  0:cmosptt  0:cmosptt  0:cmosptt  0:cmosptt 
 region       Cutoff     Linear     Linear     Cutoff     Cutoff     Cutoff
  id       -10.0468f   10.0100p   11.2745p   -7.8513f  -11.0811p    0.     
  ibs        0.         0.         0.         0.         0.         0.     
  ibd        0.         0.         0.         0.         0.         0.     
  vgs       -6.6711n    5.0000    -5.0000   -15.2117n -981.6865m    5.0000 
  vds       -5.0000    12.7954n    8.1412n   -4.0183  -981.6865m    3.7508 
  vbs        0.         0.         8.1412n    0.         4.0183     5.0000 
  vth     -831.5629m  699.7240m -849.8368m -836.3141m   -1.3981    -1.0743 
  vdsat    -48.7748m    1.4215    -2.3353   -48.7758m  -57.0009m  -53.0135m
  vod      831.5629m    4.3003    -4.1502   836.3141m  416.4066m    6.0743 
  beta     365.2332u  388.6356u  474.7926u  364.6571u  294.7058u  333.6194u
  gam eff  536.7083m    1.0307   538.0631m  536.7083m  510.5314m  525.9594m
  gm       226.7836f  685.3921f    1.4186p  177.2270f  295.9043p    0.     
  gds        2.4318f  782.3150u    1.3849m    2.0505f    5.3458p    0.     
  gmb       90.4978f  581.9399f  832.6365f   71.0082f   26.9079p    0.     
  cdtot      6.5971f    6.8732f    6.4111f    6.2970f    7.2230f    8.1376f
  cgtot      6.1152f    4.8182f   21.0239f    6.1250f    4.4077f    6.0166f
  cstot      2.0873p  886.9659f   29.8321f    1.5754f    1.5754f    1.5754f
  cbtot      2.0938p  892.7304f   25.5637f    7.8045f    6.9332f    9.5289f
  cgs        1.4765f    1.6775f   10.1436f    1.4781f    1.5529f    1.5622f
  cgd        1.5641f    2.0893f    9.7725f    1.5641f    1.5692f    1.4877f



 subckt                                                                    
 element  0:m1006    0:m1007    0:m1008    0:m1009    0:m1010    0:m1011   
 model    0:cmosptt  0:cmosptt  0:cmosptt  0:cmosptt  0:cmosptt  0:cmosptt 
 region       Cutoff     Linear     Cutoff     Cutoff     Cutoff     Cutoff
  id         3.3735f  -10.0818p   -3.3735f    0.        10.8664p    2.5048f
  ibs        0.         0.         0.         0.         0.         0.     
  ibd        0.         0.         0.         0.         0.         0.     
  vgs        1.2492    -5.0000   -15.2117n    1.2492   -52.7825n    3.9660 
  vds        1.2492   -15.2117n   -1.2492    -3.7508     1.0340     3.9660 
  vbs        1.2492     0.         0.         1.2492     5.0000     3.9660 
  vth     -849.7164m -855.7622m -849.7164m   -1.0743    -1.4206  -850.4233m
  vdsat    -48.7786m   -2.3271   -48.7786m  -53.0135m  -56.5121m  -48.4458m
  vod        2.0989    -4.1442   849.7164m    2.3234     1.4206     4.8164 
  beta     363.0430u  228.3604u  363.0430u  333.6194u  129.4535u  162.5172u
  gam eff  536.7083m  536.7083m  536.7083m  525.9594m  503.1656m  533.5245m
  gm        76.1495f    1.2898p   76.1495f    0.       289.6796p   56.5399f
  gds        1.2451f  662.7649u    1.2451f    0.         5.1740p  656.7989a
  gmb       30.8302f  768.2591f   30.8302f    0.        27.4976p   23.0108f
  cdtot      1.5754f   15.1224f    7.1345f    8.2091f    2.8841f  705.3938a
  cgtot      6.1535f   10.2469f    6.1535f    6.0166f    2.2447f    3.0262f
  cstot      1.5754f    3.0343f    1.5754f    1.5754f  705.3935a  705.3938a
  cbtot      3.1069f   13.3341f    8.6660f    9.6005f    3.0244f    1.6610f
  cgs        1.5640f    4.6535f    1.4826f    1.4877f  702.6225a  700.2725a
  cgd        1.4826f    4.8198f    1.5640f    1.5622f  696.4311a  664.9964a



 subckt                                                                    
 element  0:m1012    0:m1013    0:m1014    0:m1015    0:m1016    0:m1017   
 model    0:cmosntt  0:cmosptt  0:cmosntt  0:cmosntt  0:cmosntt  0:cmosntt 
 region       Cutoff     Linear     Linear     Linear     Cutoff     Linear
  id        -1.2745p  -11.2745p   25.8136p   25.8136p -3.220e-20 -9.820e-20
  ibs        0.         0.         0.         0.         0.         0.     
  ibd        0.         0.         0.         0.         0.         0.     
  vgs       -5.0000    -5.0000     5.0000     5.0000   -53.1975n    5.0000 
  vds       -5.0000    -8.1412n   32.9965n   32.9965n  -65.9929n -125.5202a
  vbs       -5.0000     0.         0.       -32.9965n  -65.9929n -125.5202a
  vth      554.4367m -849.8368m  699.7240m  699.7240m  699.7240m  699.7240m
  vdsat     43.6776m   -2.3353     1.4215     1.4215    42.2430m    1.4215 
  vod       -5.5544    -4.1502     4.3003     4.3003  -699.7241m    4.3003 
  beta       1.0231m  474.7926u  388.6356u  388.6356u  462.4266u  388.6356u
  gam eff    1.0081   538.0631m    1.0307     1.0307     1.0307     1.0307 
  gm        29.6432p    1.4186p    1.7675p    1.7675p  7.494e-19  6.724e-21
  gds      538.1447f    1.3849m  782.3150u  782.3150u  487.9817f  782.3150u
  gmb       10.9960p  832.6366f    1.5007p    1.5007p  3.085e-19  5.709e-21
  cdtot      1.1011f   29.8321f    5.7055f    8.0408f    4.2116f    1.1362f
  cgtot      5.5088f   21.0239f    4.8182f    4.8182f    2.8769f    4.8182f
  cstot      6.7565f    6.4111f    1.1362f    1.1362f  501.1062a    1.9950f
  cbtot      9.4210f   25.5637f    5.7330f    8.0684f    5.7934f    2.0225f
  cgs        1.0673f    9.7725f    1.6775f    1.6775f  484.7309a    2.0893f
  cgd      675.8304a   10.1436f    2.0893f    2.0893f  309.2027a    1.6775f



 subckt                                                                    
 element  0:m1018    0:m1019    0:m1020    0:m1021    0:m1022    0:m1023   
 model    0:cmosntt  0:cmosntt  0:cmosntt  0:cmosntt  0:cmosntt  0:cmosntt 
 region       Cutoff     Linear     Cutoff     Linear     Linear     Cutoff
  id        81.7996f  9.758e-20  3.200e-20  -25.6513p  -25.6513p    1.2745p
  ibs        0.         0.         0.         0.         0.         0.     
  ibd        0.         0.         0.         0.         0.         0.     
  vgs       65.9929n    5.0000    12.7954n    5.0000     5.0000    65.5779n
  vds        5.0000   124.7308a   65.5779n  -32.7890n  -32.7890n    5.0000 
  vbs        0.         0.      -124.7308a  -65.5779n  -32.7890n    0.     
  vth      637.0145m  699.7240m  699.7240m  699.7240m  699.7240m  554.4367m
  vdsat     42.2390m    1.4215    42.2430m    1.4215     1.4215    43.6776m
  vod     -637.0144m    4.3003  -699.7240m    4.3003     4.3003  -554.4367m
  beta     463.8595u  388.6356u  462.4266u  388.6356u  388.6356u    1.0231m
  gam eff    1.0307     1.0307     1.0307     1.0307     1.0307     1.0081 
  gm         1.9032p  6.681e-21  7.446e-19    1.7564p    1.7564p   29.6432p
  gds       34.5734f  782.3150u  487.9817f  782.3150u  782.3150u  538.1454f
  gmb      745.0819f  5.673e-21  3.065e-19    1.4913p    1.4913p   10.9960p
  cdtot      3.7250f    5.7055f    7.1308f    4.8467f    1.1362f    6.7565f
  cgtot      2.8395f    4.8182f    2.8769f    4.8182f    4.8182f    5.5088f
  cstot    501.1066a    1.1362f  501.1061a    1.9950f    1.9950f    1.1011f
  cbtot      5.2684f    5.7330f    8.7126f    5.7330f    2.0225f    9.4210f
  cgs      309.8869a    1.6775f  309.2027a    2.0893f    2.0893f  675.8304a
  cgd      485.1763a    2.0893f  484.7309a    1.6775f    1.6775f    1.0673f



 subckt                                                                    
 element  0:m1024    0:m1025    0:m1026    0:m1027    0:m1028    0:m1029   
 model    0:cmosptt  0:cmosptt  0:cmosptt  0:cmosptt  0:cmosptt  0:cmosptt 
 region       Cutoff     Linear     Linear     Linear     Cutoff     Cutoff
  id       2.027e-21  -20.1636p  -20.1636p    0.       4.055e-21 -2.519e-22
  ibs        0.         0.         0.         0.         0.         0.     
  ibd        0.         0.         0.         0.         0.         0.     
  vgs        1.8277n   -5.0000    -5.0000    -5.0000    32.2512n  -28.5957n
  vds       30.4235n  -30.4235n  -30.4235n    0.        60.8469n   -3.7797n
  vbs       30.4235n    0.        30.4235n   60.8469n   60.8469n    0.     
  vth     -855.7622m -855.7622m -855.7622m -855.7622m -855.7622m -855.7622m
  vdsat    -48.7798m   -2.3271    -2.3271    -2.3271   -48.7798m  -48.7798m
  vod      855.7622m   -4.1442    -4.1442    -4.1442   855.7622m  855.7621m
  beta     362.3202u  228.3604u  228.3604u  228.3604u  362.3202u  362.3202u
  gam eff  536.7083m  536.7083m  536.7083m  536.7083m  536.7083m  536.7083m
  gm       4.576e-20    2.5796p    2.5796p    0.       9.153e-20  5.685e-21
  gds       66.6372f  662.7649u  662.7649u  662.7649u   66.6372f   66.6373f
  gmb      1.878e-20    1.5365p    1.5365p    0.       3.757e-20  2.333e-21
  cdtot      1.5754f    4.2762f   16.6326f   12.1019f    1.5754f   26.2882f
  cgtot      6.1666f   10.2469f   10.2469f   10.2469f    6.1666f    6.1666f
  cstot     24.7780f    3.0343f    3.0343f    3.0343f    1.5754f    1.5754f
  cbtot     26.3206f    2.4879f   14.8443f   10.3136f    3.1180f   27.8309f
  cgs        1.5639f    4.6535f    4.6535f    4.6535f    1.5639f    1.4847f
  cgd        1.4847f    4.8198f    4.8198f    4.8198f    1.4847f    1.5639f



 subckt                                                                    
 element  0:m1030    0:m1031    0:m1032    0:m1033    0:m1034    0:m1035   
 model    0:cmosptt  0:cmosptt  0:cmosptt  0:cmosptt  0:cmosptt  0:cmosptt 
 region       Linear     Linear     Cutoff     Cutoff     Cutoff     Cutoff
  id         2.5050p   -2.5050p  -10.0468f   18.9400p   11.9164p    7.7674f
  ibs        0.         0.         0.         0.         0.         0.     
  ibd        0.         0.         0.         0.         0.         0.     
  vgs       -5.0000    -5.0000   -57.0673n  -76.5545n -999.7953m    3.9772 
  vds        3.7797n   -3.7797n   -5.0000   999.7952m   22.9866m    3.9772 
  vbs        3.7797n    0.         3.7797n    5.0000     4.0002     3.9772 
  vth     -855.7622m -855.7622m -831.5629m   -1.3964    -1.4024  -836.5130m
  vdsat     -2.3271    -2.3271   -48.7748m  -56.9818m  -56.9593m  -48.7758m
  vod       -4.1442    -4.1442   831.5628m    1.3964   402.6291m    4.8137 
  beta     228.3604u  228.3604u  365.2332u  294.9063u  294.4708u  364.6331u
  gam eff  536.7083m  536.7083m  536.7083m  510.6150m  510.7214m  536.7083m
  gm       320.4765f  320.4765f  226.7839f  505.2891p  317.5700p  175.3319f
  gds      662.7649u  662.7649u    2.4318f    9.1023p  387.1961p    2.0357f
  gmb      190.8892f  190.8892f   90.4979f   45.9797p   29.2802p   70.2606f
  cdtot      3.0343f    4.2762f    7.8489f    5.6215f    5.6288f    1.5754f
  cgtot     10.2469f   10.2469f    6.1152f    4.4078f    4.4085f    6.1255f
  cstot      4.2762f    3.0343f    1.5754f    1.5754f    1.5754f    1.5754f
  cbtot      2.4879f    2.4879f    9.3481f    5.3318f    5.3390f    3.0833f
  cgs        4.8198f    4.6535f    1.4765f    1.5692f    1.5692f    1.5641f
  cgd        4.6535f    4.8198f    1.5641f    1.5529f    1.5535f    1.4781f



 subckt                                                                    
 element  0:m1036    0:m1037    0:m1038    0:m1039    0:m1040    0:m1041   
 model    0:cmosptt  0:cmosptt  0:cmosntt  0:cmosntt  0:cmosntt  0:cmosntt 
 region       Linear     Cutoff     Linear     Cutoff     Cutoff     Cutoff
  id       -10.0818p  -10.0468f   -5.0818p  3.170e-21   81.7995f  -81.7995f
  ibs        0.         0.         0.         0.         0.         0.     
  ibd        0.         0.         0.         0.         0.         0.     
  vgs       -5.0000   -60.8469n    5.0000    31.0421n    6.2996n   -5.0000 
  vds      -15.2117n   -5.0000    -6.4958n    6.4958n    5.0000    -5.0000 
  vbs        0.         0.        -6.4958n    0.        -6.4958n   -5.0000 
  vth     -855.7622m -831.5629m  699.7240m  699.7240m  637.0145m  637.0145m
  vdsat     -2.3271   -48.7748m    1.4215    42.2430m   42.2390m   42.2390m
  vod       -4.1442   831.5628m    4.3003  -699.7240m -637.0145m   -5.6370 
  beta     228.3604u  365.2332u  388.6356u  462.4266u  463.8595u  463.8595u
  gam eff  536.7083m  536.7083m    1.0307     1.0307     1.0307     1.0307 
  gm         1.2898p  226.7839f  347.9529f  7.376e-20    1.9032p    1.9032p
  gds      662.7649u    2.4318f  782.3150u  487.9826f   34.5734f   34.5734f
  gmb      768.2592f   90.4979f  295.4334f  3.036e-20  745.0808f  745.0811f
  cdtot     15.1224f    6.5971f    1.1362f  501.1062a    4.0528f    4.2116f
  cgtot     10.2469f    6.1152f    4.8182f    2.8769f    2.8395f    2.8395f
  cstot      3.0343f    1.5754f   12.3352f  501.1061a  501.1066a  501.1061a
  cbtot     13.3341f    8.0963f   12.3628f    2.0829f    5.5962f    5.7550f
  cgs        4.6535f    1.4765f    2.0893f  309.2027a  309.8869a  485.1763a
  cgd        4.8198f    1.5641f    1.6775f  484.7309a  485.1763a  309.8869a



 subckt                                                                    
 element  0:m1042    0:m1043    0:m1044    0:m1045    0:m1046    0:m1047   
 model    0:cmosntt  0:cmosntt  0:cmosntt  0:cmosntt  0:cmosntt  0:cmosntt 
 region       Linear     Linear     Cutoff     Cutoff     Linear     Cutoff
  id        -5.0818p   34.9499p -2.180e-20  2.180e-20   34.9499p -3.056e-20
  ibs        0.         0.         0.         0.         0.         0.     
  ibd        0.         0.         0.         0.         0.         0.     
  vgs        5.0000     5.0000   -13.6328n   12.7954n    5.0000   -76.5545n
  vds       -6.4958n   44.6749n  -44.6749n   44.6749n   44.6749n  -62.6312n
  vbs       -6.4958n    0.       -44.6749n    0.       -44.6749n  -89.3499n
  vth      699.7240m  699.7240m  699.7240m  699.7240m  699.7240m  699.7240m
  vdsat      1.4215     1.4215    42.2430m   42.2430m    1.4215    42.2430m
  vod        4.3003     4.3003  -699.7240m -699.7240m    4.3003  -699.7241m
  beta     388.6356u  388.6356u  462.4266u  462.4266u  388.6356u  462.4266u
  gam eff    1.0307     1.0307     1.0307     1.0307     1.0307     1.0307 
  gm       347.9529f    2.3930p  5.073e-19  5.073e-19    2.3930p  7.112e-19
  gds      782.3150u  782.3150u  487.9822f  487.9820f  782.3149u  487.9813f
  gmb      295.4334f    2.0318p  2.088e-19  2.088e-19    2.0318p  2.927e-19
  cdtot      1.1362f   12.9190f  501.1061a  501.1062a    8.0408f    4.2116f
  cgtot      4.8182f    4.8182f    2.8769f    2.8769f    4.8182f    2.8769f
  cstot      1.9950f    1.1362f  501.1062a  501.1061a    1.1362f  501.1062a
  cbtot      2.0225f   12.9466f    2.0829f    2.0829f    8.0684f    5.7934f
  cgs        2.0893f    1.6775f  484.7309a  309.2027a    1.6775f  484.7309a
  cgd        1.6775f    2.0893f  309.2027a  484.7309a    2.0893f  309.2027a



 subckt                                                                    
 element  0:m1048    0:m1049    0:m1050    0:m1051    0:m1052    0:m1053   
 model    0:cmosntt  0:cmosntt  0:cmosntt  0:cmosntt  0:cmosptt  0:cmosptt 
 region       Cutoff     Linear     Cutoff     Linear     Cutoff     Cutoff
  id      -1.304e-20 -3.976e-20   81.7996f   10.0100p  -10.0468f   10.0468f
  ibs        0.         0.         0.         0.         0.         0.     
  ibd        0.         0.         0.         0.         0.         0.     
  vgs        4.3235n    5.0000    89.3499n    5.0000    -8.1412n    5.0000 
  vds      -26.7186n  -50.8195a    5.0000    12.7954n   -5.0000     5.0000 
  vbs      -26.7186n  -50.8195a    0.         0.         0.         5.0000 
  vth      699.7240m  699.7240m  637.0145m  699.7240m -831.5629m -831.5629m
  vdsat     42.2430m    1.4215    42.2390m    1.4215   -48.7748m  -48.7748m
  vod     -699.7240m    4.3003  -637.0144m    4.3003   831.5629m    5.8316 
  beta     462.4266u  388.6356u  463.8595u  388.6356u  365.2332u  365.2332u
  gam eff    1.0307     1.0307     1.0307     1.0307   536.7083m  536.7083m
  gm       3.034e-19  2.722e-21    1.9032p  685.3921f  226.7837f  226.7837f
  gds      487.9824f  782.3150u   34.5734f  782.3150u    2.4318f    2.4318f
  gmb      1.249e-19  2.311e-21  745.0823f  581.9399f   90.4978f   90.4978f
  cdtot      4.2116f    1.1362f    3.7250f    6.8732f    7.2230f    1.5754f
  cgtot      2.8769f    4.8182f    2.8395f    4.8182f    6.1152f    6.1152f
  cstot    501.1062a    1.9950f  501.1066a    1.1362f    1.5754f    1.5754f
  cbtot      5.7934f    2.0225f    5.2684f    6.9007f    8.7222f    3.0746f
  cgs      484.7309a    2.0893f  309.8869a    1.6775f    1.4765f    1.5641f
  cgd      309.2027a    1.6775f  485.1763a    2.0893f    1.5641f    1.4765f



 subckt                                                                    
 element  0:m1054    0:m1055    0:m1056    0:m1057    0:m1058    0:m1059   
 model    0:cmosntt  0:cmosntt  0:cmosptt  0:cmosntt  0:cmosptt  0:cmosptt 
 region       Linear     Linear     Linear     Cutoff     Linear     Cutoff
  id        20.0201p   20.0201p  -10.0818p   81.7995f  -18.9522p  1.906e-21
  ibs        0.         0.         0.         0.         0.         0.     
  ibd        0.         0.         0.         0.         0.         0.     
  vgs        5.0000     5.0000    -5.0000     0.        -5.0000    21.9246n
  vds       11.4215n   11.4215n  -15.2117n    5.0000   -28.5957n   28.5957n
  vbs        0.       -11.4215n    0.         0.         0.        28.5957n
  vth      617.1463m  617.1463m -855.7622m  637.0145m -855.7622m -855.7622m
  vdsat      1.4338     1.4338    -2.3271    42.2390m   -2.3271   -48.7798m
  vod        4.3829     4.3829    -4.1442  -637.0145m   -4.1442   855.7622m
  beta     839.4280u  839.4281u  228.3604u  463.8595u  228.3604u  362.3202u
  gam eff    1.0081     1.0081   536.7083m    1.0307   536.7083m  536.7083m
  gm         1.3162p    1.3162p    1.2898p    1.9032p    2.4246p  4.301e-20
  gds        1.7528m    1.7528m  662.7649u   34.5733f  662.7649u   66.6372f
  gmb        1.0207p    1.0207p  768.2592f  745.0808f    1.4442p  1.765e-20
  cdtot     11.1049f   13.0485f   15.1224f    3.7250f   16.6326f    1.5754f
  cgtot      9.9552f    9.9552f   10.2469f    2.8395f   10.2469f    6.1666f
  cstot      2.5830f    2.5830f    3.0343f  501.1066a    3.0343f    1.5754f
  cbtot     10.6453f   12.5888f   13.3341f    5.2684f   14.8443f    3.1180f
  cgs        3.6333f    3.6333f    4.6535f  309.8869a    4.6535f    1.5639f
  cgd        4.5925f    4.5925f    4.8198f  485.1763a    4.8198f    1.4847f



 subckt                                                                    
 element  0:m1060    0:m1061    0:m1062    0:m1063    0:m1064    0:m1065   
 model    0:cmosntt  0:cmosntt  0:cmosptt  0:cmosptt  0:cmosntt  0:cmosntt 
 region       Cutoff     Cutoff     Linear     Linear     Cutoff     Cutoff
  id       990.2176f   13.2729p   -4.4214p    4.4214p  371.0568f  1.046e-28
  ibs        0.         0.         0.         0.         0.         0.     
  ibd        0.         0.         0.         0.         0.         0.     
  vgs       22.8429n  679.3252m   -5.0000    -5.0000     0.        -1.1572 
  vds        4.3207   679.3252m   -6.6711n    6.6711n    1.1572     3.8428 
  vbs        0.        -4.3207     0.         6.6711n    0.        -1.1572 
  vth      562.9568m    1.0719  -855.7622m -855.7622m  602.6323m  792.3957m
  vdsat     43.6781m   52.2312m   -2.3271    -2.3271    43.6805m   48.1266m
  vod     -562.9567m -392.5667m   -4.1442    -4.1442  -602.6323m   -1.9496 
  beta       1.0227m  970.7912u  228.3604u  228.3604u    1.0209m    1.0021m
  gam eff    1.0081     1.2633   536.7083m  536.7083m    1.0081     1.1016 
  gm        23.0331p  355.6807p  565.6431f  565.6431f    8.6326p  2.680e-27
  gds      330.0423f    7.0451p  662.7649u  662.7649u  125.1505f    0.     
  gmb        8.5874p   14.8154p  336.9207f  336.9207f    3.2954p  5.689e-28
  cdtot      5.8708f    6.7565f   16.6326f    3.0343f    6.8342f    6.7565f
  cgtot      5.5185f    3.8875f   10.2469f   10.2469f    5.5650f    5.3280f
  cstot      1.1011f    1.1012f    3.0343f    4.2762f    1.1011f    1.1011f
  cbtot      8.5453f    7.5033f   14.8443f    2.4879f    9.5565f    9.1899f
  cgs      675.6863a  956.2532a    4.6535f    4.8198f  674.9384a  726.1975a
  cgd        1.0672f    1.0833f    4.8198f    4.6535f    1.0666f    1.0674f



 subckt                                                                    
 element  0:m1066    0:m1067    0:m1068    0:m1069    0:m1070    0:m1071   
 model    0:cmosptt  0:cmosptt  0:cmosptt  0:cmosptt  0:cmosptt  0:cmosptt 
 region       Linear     Cutoff     Cutoff     Cutoff     Linear     Linear
  id        11.2745p  -19.2256f  -11.2359p   24.3732f    5.0244p  -11.2745p
  ibs        0.         0.         0.         0.         0.         0.     
  ibd        0.         0.         0.         0.         0.         0.     
  vgs       -5.0000    -8.1412n -945.8377m    5.0000    -5.0000    -5.0000 
  vds        8.1412n   -4.0542  -945.8376m    5.0000     3.6281n   -8.1412n
  vbs        8.1412n    0.         4.0542     5.0000     3.6281n    0.     
  vth     -849.8368m -830.2152m   -1.3896  -825.6375m -849.8368m -849.8368m
  vdsat     -2.3353   -49.0796m  -57.3138m  -49.0787m   -2.3353    -2.3353 
  vod       -4.1502   830.2152m  443.8004m    5.8256    -4.1502    -4.1502 
  beta     474.7926u  768.9727u  625.0260u  770.1461u  474.7926u  474.7926u
  gam eff  538.0631m  538.0631m  513.6333m  538.0631m  538.0631m  538.0631m
  gm         1.4186p  433.9750f  300.3617p  550.1700f  632.1888f    1.4186p
  gds        1.3849m    5.0062f    5.4659p    5.9001f    1.3849m    1.3849m
  gmb      832.6365f  172.7248f   26.7896p  218.1145f  371.0578f  832.6365f
  cdtot      6.4111f   11.0749f   18.6717f   18.4727f    6.4111f   29.8321f
  cgtot     21.0239f   12.3229f    8.7336f   12.3032f   21.0239f   21.0239f
  cstot     29.8321f    3.3154f    3.3154f    3.3154f    8.9634f    6.4111f
  cbtot     25.5637f   13.6865f   17.5216f   21.0677f    4.6951f   25.5637f
  cgs       10.1436f    3.1042f    3.2660f    3.2918f   10.1436f    9.7725f
  cgd        9.7725f    3.2917f    3.3023f    3.1010f    9.7725f   10.1436f



 subckt                                                                    
 element  0:m1072    0:m1073    0:m1074    0:m1075    0:m1076    0:m1077   
 model    0:cmosntt  0:cmosntt  0:cmosntt  0:cmosntt  0:cmosntt  0:cmosntt 
 region       Cutoff     Linear     Linear     Cutoff     Cutoff     Cutoff
  id        -1.2745p   27.2061p   27.2061p -1.271e-19 -1.026e-19    1.2745p
  ibs        0.         0.         0.         0.         0.         0.     
  ibd        0.         0.         0.         0.         0.         0.     
  vgs       -5.0000     5.0000     5.0000   -31.0421n  -13.8700n    0.     
  vds       -5.0000    15.5211n   15.5211n  -17.1722n  -13.8700n    5.0000 
  vbs       -5.0000     0.       -15.5211n  -31.0421n  -13.8700n    0.     
  vth      554.4367m  617.1463m  617.1463m  617.1463m  617.1463m  554.4367m
  vdsat     43.6776m    1.4338     1.4338    43.6814m   43.6814m   43.6776m
  vod       -5.5544     4.3829     4.3829  -617.1463m -617.1463m -554.4367m
  beta       1.0231m  839.4280u  839.4280u    1.0202m    1.0202m    1.0231m
  gam eff    1.0081     1.0081     1.0081     1.0081     1.0081     1.0081 
  gm        29.6432p    1.7887p    1.7887p    2.9567a    2.3881a   29.6432p
  gds      538.1445f    1.7528m    1.7528m    7.4005p    7.4005p  538.1445f
  gmb       10.9960p    1.3871p    1.3871p    1.1544a  9.324e-19   10.9960p
  cdtot      1.1011f   11.1049f   17.9075f    7.9344f    1.1011f    6.7565f
  cgtot      5.5088f    9.9552f    9.9552f    5.5825f    5.5825f    5.5088f
  cstot      6.7565f    2.5830f    2.5830f    1.1011f    1.1011f    1.1011f
  cbtot      9.4210f   10.6453f   17.4478f   10.6749f    3.8415f    9.4210f
  cgs        1.0673f    3.6333f    3.6333f    1.0664f    1.0664f  675.8304a
  cgd      675.8304a    4.5925f    4.5925f  674.6294a  674.6294a    1.0673f



 subckt                                                                    
 element  0:m1078    0:m1079    0:m1080    0:m1081    0:m1082    0:m1083   
 model    0:cmosptt  0:cmosptt  0:cmosptt  0:cmosptt  0:cmosptt  0:cmosptt 
 region       Linear     Cutoff     Cutoff     Cutoff     Cutoff     Linear
  id        11.2745p   -7.8513f  -11.0811p    0.         3.3735f  -10.0818p
  ibs        0.         0.         0.         0.         0.         0.     
  ibd        0.         0.         0.         0.         0.         0.     
  vgs       -5.0000   -15.2117n -981.6865m    5.0000     1.2492    -5.0000 
  vds        8.1412n   -4.0183  -981.6865m    3.7508     1.2492   -15.2117n
  vbs        8.1412n    0.         4.0183     5.0000     1.2492     0.     
  vth     -849.8368m -836.3141m   -1.3981    -1.0743  -849.7164m -855.7622m
  vdsat     -2.3353   -48.7758m  -57.0009m  -53.0135m  -48.7786m   -2.3271 
  vod       -4.1502   836.3141m  416.4066m    6.0743     2.0989    -4.1442 
  beta     474.7926u  364.6571u  294.7058u  333.6194u  363.0430u  228.3604u
  gam eff  538.0631m  536.7083m  510.5314m  525.9594m  536.7083m  536.7083m
  gm         1.4186p  177.2270f  295.9043p    0.        76.1495f    1.2898p
  gds        1.3849m    2.0505f    5.3458p    0.         1.2451f  662.7649u
  gmb      832.6365f   71.0082f   26.9079p    0.        30.8302f  768.2591f
  cdtot      6.4111f    6.2970f    7.2230f    8.1376f    1.5754f   15.1224f
  cgtot     21.0239f    6.1250f    4.4077f    6.0166f    6.1535f   10.2469f
  cstot     29.8321f    1.5754f    1.5754f    1.5754f    1.5754f    3.0343f
  cbtot     25.5637f    7.8045f    6.9332f    9.5289f    3.1069f   13.3341f
  cgs       10.1436f    1.4781f    1.5529f    1.5622f    1.5640f    4.6535f
  cgd        9.7725f    1.5641f    1.5692f    1.4877f    1.4826f    4.8198f



 subckt                                                                    
 element  0:m1084    0:m1085    0:m1086    0:m1087    0:m1088    0:m1089   
 model    0:cmosptt  0:cmosptt  0:cmosptt  0:cmosptt  0:cmosntt  0:cmosptt 
 region       Cutoff     Cutoff     Cutoff     Cutoff     Cutoff     Linear
  id        -3.3735f    0.        10.8664p    2.5048f   -1.2745p  -11.2745p
  ibs        0.         0.         0.         0.         0.         0.     
  ibd        0.         0.         0.         0.         0.         0.     
  vgs      -15.2117n    1.2492   -52.7825n    3.9660    -5.0000    -5.0000 
  vds       -1.2492    -3.7508     1.0340     3.9660    -5.0000    -8.1412n
  vbs        0.         1.2492     5.0000     3.9660    -5.0000     0.     
  vth     -849.7164m   -1.0743    -1.4206  -850.4233m  554.4367m -849.8368m
  vdsat    -48.7786m  -53.0135m  -56.5121m  -48.4458m   43.6776m   -2.3353 
  vod      849.7164m    2.3234     1.4206     4.8164    -5.5544    -4.1502 
  beta     363.0430u  333.6194u  129.4535u  162.5172u    1.0231m  474.7926u
  gam eff  536.7083m  525.9594m  503.1656m  533.5245m    1.0081   538.0631m
  gm        76.1495f    0.       289.6796p   56.5399f   29.6432p    1.4186p
  gds        1.2451f    0.         5.1740p  656.7989a  538.1447f    1.3849m
  gmb       30.8302f    0.        27.4976p   23.0108f   10.9960p  832.6366f
  cdtot      7.1345f    8.2091f    2.8841f  705.3938a    1.1011f   29.8321f
  cgtot      6.1535f    6.0166f    2.2447f    3.0262f    5.5088f   21.0239f
  cstot      1.5754f    1.5754f  705.3935a  705.3938a    6.7565f    6.4111f
  cbtot      8.6660f    9.6005f    3.0244f    1.6610f    9.4210f   25.5637f
  cgs        1.4826f    1.4877f  702.6225a  700.2725a    1.0673f    9.7725f
  cgd        1.5640f    1.5622f  696.4311a  664.9964a  675.8304a   10.1436f



 subckt                                                                    
 element  0:m1090    0:m1091    0:m1092    0:m1093    0:m1094    0:m1095   
 model    0:cmosntt  0:cmosntt  0:cmosntt  0:cmosntt  0:cmosntt  0:cmosntt 
 region       Linear     Linear     Cutoff     Linear     Cutoff     Linear
  id        25.8136p   25.8136p -3.220e-20 -9.820e-20   81.7996f  9.758e-20
  ibs        0.         0.         0.         0.         0.         0.     
  ibd        0.         0.         0.         0.         0.         0.     
  vgs        5.0000     5.0000   -53.1975n    5.0000    65.9929n    5.0000 
  vds       32.9965n   32.9965n  -65.9929n -125.5202a    5.0000   124.7308a
  vbs        0.       -32.9965n  -65.9929n -125.5202a    0.         0.     
  vth      699.7240m  699.7240m  699.7240m  699.7240m  637.0145m  699.7240m
  vdsat      1.4215     1.4215    42.2430m    1.4215    42.2390m    1.4215 
  vod        4.3003     4.3003  -699.7241m    4.3003  -637.0144m    4.3003 
  beta     388.6356u  388.6356u  462.4266u  388.6356u  463.8595u  388.6356u
  gam eff    1.0307     1.0307     1.0307     1.0307     1.0307     1.0307 
  gm         1.7675p    1.7675p  7.494e-19  6.724e-21    1.9032p  6.681e-21
  gds      782.3150u  782.3150u  487.9817f  782.3150u   34.5734f  782.3150u
  gmb        1.5007p    1.5007p  3.085e-19  5.709e-21  745.0819f  5.673e-21
  cdtot      5.7055f    8.0408f    4.2116f    1.1362f    3.7250f    5.7055f
  cgtot      4.8182f    4.8182f    2.8769f    4.8182f    2.8395f    4.8182f
  cstot      1.1362f    1.1362f  501.1062a    1.9950f  501.1066a    1.1362f
  cbtot      5.7330f    8.0684f    5.7934f    2.0225f    5.2684f    5.7330f
  cgs        1.6775f    1.6775f  484.7309a    2.0893f  309.8869a    1.6775f
  cgd        2.0893f    2.0893f  309.2027a    1.6775f  485.1763a    2.0893f



 subckt                                                                    
 element  0:m1096    0:m1097    0:m1098    0:m1099    0:m1100    0:m1101   
 model    0:cmosntt  0:cmosntt  0:cmosntt  0:cmosntt  0:cmosptt  0:cmosptt 
 region       Cutoff     Linear     Linear     Cutoff     Cutoff     Linear
  id       3.200e-20  -25.6513p  -25.6513p    1.2745p  2.027e-21  -20.1636p
  ibs        0.         0.         0.         0.         0.         0.     
  ibd        0.         0.         0.         0.         0.         0.     
  vgs       12.7954n    5.0000     5.0000    65.5779n    1.8277n   -5.0000 
  vds       65.5779n  -32.7890n  -32.7890n    5.0000    30.4235n  -30.4235n
  vbs     -124.7308a  -65.5779n  -32.7890n    0.        30.4235n    0.     
  vth      699.7240m  699.7240m  699.7240m  554.4367m -855.7622m -855.7622m
  vdsat     42.2430m    1.4215     1.4215    43.6776m  -48.7798m   -2.3271 
  vod     -699.7240m    4.3003     4.3003  -554.4367m  855.7622m   -4.1442 
  beta     462.4266u  388.6356u  388.6356u    1.0231m  362.3202u  228.3604u
  gam eff    1.0307     1.0307     1.0307     1.0081   536.7083m  536.7083m
  gm       7.446e-19    1.7564p    1.7564p   29.6432p  4.576e-20    2.5796p
  gds      487.9817f  782.3150u  782.3150u  538.1454f   66.6372f  662.7649u
  gmb      3.065e-19    1.4913p    1.4913p   10.9960p  1.878e-20    1.5365p
  cdtot      7.1308f    4.8467f    1.1362f    6.7565f    1.5754f    4.2762f
  cgtot      2.8769f    4.8182f    4.8182f    5.5088f    6.1666f   10.2469f
  cstot    501.1061a    1.9950f    1.9950f    1.1011f   24.7780f    3.0343f
  cbtot      8.7126f    5.7330f    2.0225f    9.4210f   26.3206f    2.4879f
  cgs      309.2027a    2.0893f    2.0893f  675.8304a    1.5639f    4.6535f
  cgd      484.7309a    1.6775f    1.6775f    1.0673f    1.4847f    4.8198f



 subckt                                                                    
 element  0:m1102    0:m1103    0:m1104    0:m1105    0:m1106    0:m1107   
 model    0:cmosptt  0:cmosptt  0:cmosptt  0:cmosptt  0:cmosptt  0:cmosptt 
 region       Linear     Linear     Cutoff     Cutoff     Linear     Linear
  id       -20.1636p    0.       4.055e-21 -2.519e-22    2.5050p   -2.5050p
  ibs        0.         0.         0.         0.         0.         0.     
  ibd        0.         0.         0.         0.         0.         0.     
  vgs       -5.0000    -5.0000    32.2512n  -28.5957n   -5.0000    -5.0000 
  vds      -30.4235n    0.        60.8469n   -3.7797n    3.7797n   -3.7797n
  vbs       30.4235n   60.8469n   60.8469n    0.         3.7797n    0.     
  vth     -855.7622m -855.7622m -855.7622m -855.7622m -855.7622m -855.7622m
  vdsat     -2.3271    -2.3271   -48.7798m  -48.7798m   -2.3271    -2.3271 
  vod       -4.1442    -4.1442   855.7622m  855.7621m   -4.1442    -4.1442 
  beta     228.3604u  228.3604u  362.3202u  362.3202u  228.3604u  228.3604u
  gam eff  536.7083m  536.7083m  536.7083m  536.7083m  536.7083m  536.7083m
  gm         2.5796p    0.       9.153e-20  5.685e-21  320.4766f  320.4766f
  gds      662.7649u  662.7649u   66.6372f   66.6373f  662.7649u  662.7649u
  gmb        1.5365p    0.       3.757e-20  2.333e-21  190.8893f  190.8893f
  cdtot     16.6326f   12.1019f    1.5754f   26.2882f    3.0343f    4.2762f
  cgtot     10.2469f   10.2469f    6.1666f    6.1666f   10.2469f   10.2469f
  cstot      3.0343f    3.0343f    1.5754f    1.5754f    4.2762f    3.0343f
  cbtot     14.8443f   10.3136f    3.1180f   27.8309f    2.4879f    2.4879f
  cgs        4.6535f    4.6535f    1.5639f    1.4847f    4.8198f    4.6535f
  cgd        4.8198f    4.8198f    1.4847f    1.5639f    4.6535f    4.8198f



 subckt                                                                    
 element  0:m1108    0:m1109    0:m1110    0:m1111    0:m1112    0:m1113   
 model    0:cmosptt  0:cmosptt  0:cmosptt  0:cmosptt  0:cmosptt  0:cmosptt 
 region       Cutoff     Cutoff     Cutoff     Cutoff     Linear     Cutoff
  id       -10.0468f   18.9400p   11.9164p    7.7674f  -10.0818p  -10.0468f
  ibs        0.         0.         0.         0.         0.         0.     
  ibd        0.         0.         0.         0.         0.         0.     
  vgs      -57.0673n  -76.5545n -999.7953m    3.9772    -5.0000   -60.8469n
  vds       -5.0000   999.7952m   22.9866m    3.9772   -15.2117n   -5.0000 
  vbs        3.7797n    5.0000     4.0002     3.9772     0.         0.     
  vth     -831.5629m   -1.3964    -1.4024  -836.5130m -855.7622m -831.5629m
  vdsat    -48.7748m  -56.9818m  -56.9593m  -48.7758m   -2.3271   -48.7748m
  vod      831.5628m    1.3964   402.6291m    4.8137    -4.1442   831.5628m
  beta     365.2332u  294.9063u  294.4708u  364.6331u  228.3604u  365.2332u
  gam eff  536.7083m  510.6150m  510.7214m  536.7083m  536.7083m  536.7083m
  gm       226.7839f  505.2891p  317.5700p  175.3319f    1.2898p  226.7839f
  gds        2.4318f    9.1023p  387.1961p    2.0357f  662.7649u    2.4318f
  gmb       90.4979f   45.9797p   29.2802p   70.2606f  768.2592f   90.4979f
  cdtot      7.8489f    5.6215f    5.6288f    1.5754f   15.1224f    6.5971f
  cgtot      6.1152f    4.4078f    4.4085f    6.1255f   10.2469f    6.1152f
  cstot      1.5754f    1.5754f    1.5754f    1.5754f    3.0343f    1.5754f
  cbtot      9.3481f    5.3318f    5.3390f    3.0833f   13.3341f    8.0963f
  cgs        1.4765f    1.5692f    1.5692f    1.5641f    4.6535f    1.4765f
  cgd        1.5641f    1.5529f    1.5535f    1.4781f    4.8198f    1.5641f



 subckt                                                                    
 element  0:m1114    0:m1115    0:m1116    0:m1117    0:m1118    0:m1119   
 model    0:cmosntt  0:cmosntt  0:cmosntt  0:cmosntt  0:cmosntt  0:cmosntt 
 region       Linear     Cutoff     Cutoff     Cutoff     Linear     Linear
  id        -5.0818p  3.170e-21   81.7995f  -81.7995f   -5.0818p   34.9499p
  ibs        0.         0.         0.         0.         0.         0.     
  ibd        0.         0.         0.         0.         0.         0.     
  vgs        5.0000    31.0421n    6.2996n   -5.0000     5.0000     5.0000 
  vds       -6.4958n    6.4958n    5.0000    -5.0000    -6.4958n   44.6749n
  vbs       -6.4958n    0.        -6.4958n   -5.0000    -6.4958n    0.     
  vth      699.7240m  699.7240m  637.0145m  637.0145m  699.7240m  699.7240m
  vdsat      1.4215    42.2430m   42.2390m   42.2390m    1.4215     1.4215 
  vod        4.3003  -699.7240m -637.0145m   -5.6370     4.3003     4.3003 
  beta     388.6356u  462.4266u  463.8595u  463.8595u  388.6356u  388.6356u
  gam eff    1.0307     1.0307     1.0307     1.0307     1.0307     1.0307 
  gm       347.9529f  7.376e-20    1.9032p    1.9032p  347.9529f    2.3930p
  gds      782.3150u  487.9826f   34.5734f   34.5734f  782.3150u  782.3150u
  gmb      295.4334f  3.036e-20  745.0808f  745.0811f  295.4334f    2.0318p
  cdtot      1.1362f  501.1062a    4.0528f    4.2116f    1.1362f   12.9190f
  cgtot      4.8182f    2.8769f    2.8395f    2.8395f    4.8182f    4.8182f
  cstot     12.3352f  501.1061a  501.1066a  501.1061a    1.9950f    1.1362f
  cbtot     12.3628f    2.0829f    5.5962f    5.7550f    2.0225f   12.9466f
  cgs        2.0893f  309.2027a  309.8869a  485.1763a    2.0893f    1.6775f
  cgd        1.6775f  484.7309a  485.1763a  309.8869a    1.6775f    2.0893f



 subckt                                                                    
 element  0:m1120    0:m1121    0:m1122    0:m1123    0:m1124    0:m1125   
 model    0:cmosntt  0:cmosntt  0:cmosntt  0:cmosntt  0:cmosntt  0:cmosntt 
 region       Cutoff     Cutoff     Linear     Cutoff     Cutoff     Linear
  id      -2.180e-20  2.180e-20   34.9499p -3.056e-20 -1.304e-20 -3.976e-20
  ibs        0.         0.         0.         0.         0.         0.     
  ibd        0.         0.         0.         0.         0.         0.     
  vgs      -13.6328n   12.7954n    5.0000   -76.5545n    4.3235n    5.0000 
  vds      -44.6749n   44.6749n   44.6749n  -62.6312n  -26.7186n  -50.8195a
  vbs      -44.6749n    0.       -44.6749n  -89.3499n  -26.7186n  -50.8195a
  vth      699.7240m  699.7240m  699.7240m  699.7240m  699.7240m  699.7240m
  vdsat     42.2430m   42.2430m    1.4215    42.2430m   42.2430m    1.4215 
  vod     -699.7240m -699.7240m    4.3003  -699.7241m -699.7240m    4.3003 
  beta     462.4266u  462.4266u  388.6356u  462.4266u  462.4266u  388.6356u
  gam eff    1.0307     1.0307     1.0307     1.0307     1.0307     1.0307 
  gm       5.073e-19  5.073e-19    2.3930p  7.112e-19  3.034e-19  2.722e-21
  gds      487.9822f  487.9820f  782.3149u  487.9813f  487.9824f  782.3150u
  gmb      2.088e-19  2.088e-19    2.0318p  2.927e-19  1.249e-19  2.311e-21
  cdtot    501.1061a  501.1062a    8.0408f    4.2116f    4.2116f    1.1362f
  cgtot      2.8769f    2.8769f    4.8182f    2.8769f    2.8769f    4.8182f
  cstot    501.1062a  501.1061a    1.1362f  501.1062a  501.1062a    1.9950f
  cbtot      2.0829f    2.0829f    8.0684f    5.7934f    5.7934f    2.0225f
  cgs      484.7309a  309.2027a    1.6775f  484.7309a  484.7309a    2.0893f
  cgd      309.2027a  484.7309a    2.0893f  309.2027a  309.2027a    1.6775f



 subckt                                                                    
 element  0:m1126    0:m1127    0:m1128    0:m1129    0:m1130    0:m1131   
 model    0:cmosntt  0:cmosntt  0:cmosptt  0:cmosptt  0:cmosntt  0:cmosntt 
 region       Cutoff     Linear     Cutoff     Cutoff     Linear     Linear
  id        81.7996f   10.0100p  -10.0468f   10.0468f   20.0201p   20.0201p
  ibs        0.         0.         0.         0.         0.         0.     
  ibd        0.         0.         0.         0.         0.         0.     
  vgs       89.3499n    5.0000    -8.1412n    5.0000     5.0000     5.0000 
  vds        5.0000    12.7954n   -5.0000     5.0000    11.4215n   11.4215n
  vbs        0.         0.         0.         5.0000     0.       -11.4215n
  vth      637.0145m  699.7240m -831.5629m -831.5629m  617.1463m  617.1463m
  vdsat     42.2390m    1.4215   -48.7748m  -48.7748m    1.4338     1.4338 
  vod     -637.0144m    4.3003   831.5629m    5.8316     4.3829     4.3829 
  beta     463.8595u  388.6356u  365.2332u  365.2332u  839.4280u  839.4281u
  gam eff    1.0307     1.0307   536.7083m  536.7083m    1.0081     1.0081 
  gm         1.9032p  685.3921f  226.7837f  226.7837f    1.3162p    1.3162p
  gds       34.5734f  782.3150u    2.4318f    2.4318f    1.7528m    1.7528m
  gmb      745.0823f  581.9399f   90.4978f   90.4978f    1.0207p    1.0207p
  cdtot      3.7250f    6.8732f    7.2230f    1.5754f   11.1049f   13.0485f
  cgtot      2.8395f    4.8182f    6.1152f    6.1152f    9.9552f    9.9552f
  cstot    501.1066a    1.1362f    1.5754f    1.5754f    2.5830f    2.5830f
  cbtot      5.2684f    6.9007f    8.7222f    3.0746f   10.6453f   12.5888f
  cgs      309.8869a    1.6775f    1.4765f    1.5641f    3.6333f    3.6333f
  cgd      485.1763a    2.0893f    1.5641f    1.4765f    4.5925f    4.5925f



 subckt                                                                    
 element  0:m1132    0:m1133    0:m1134    0:m1135    0:m1136    0:m1137   
 model    0:cmosptt  0:cmosntt  0:cmosptt  0:cmosptt  0:cmosntt  0:cmosntt 
 region       Linear     Cutoff     Linear     Cutoff     Cutoff     Cutoff
  id       -10.0818p   81.7995f  -18.9522p  1.906e-21  990.2176f   13.2729p
  ibs        0.         0.         0.         0.         0.         0.     
  ibd        0.         0.         0.         0.         0.         0.     
  vgs       -5.0000     0.        -5.0000    21.9246n   22.8429n  679.3252m
  vds      -15.2117n    5.0000   -28.5957n   28.5957n    4.3207   679.3252m
  vbs        0.         0.         0.        28.5957n    0.        -4.3207 
  vth     -855.7622m  637.0145m -855.7622m -855.7622m  562.9568m    1.0719 
  vdsat     -2.3271    42.2390m   -2.3271   -48.7798m   43.6781m   52.2312m
  vod       -4.1442  -637.0145m   -4.1442   855.7622m -562.9567m -392.5667m
  beta     228.3604u  463.8595u  228.3604u  362.3202u    1.0227m  970.7912u
  gam eff  536.7083m    1.0307   536.7083m  536.7083m    1.0081     1.2633 
  gm         1.2898p    1.9032p    2.4246p  4.301e-20   23.0331p  355.6807p
  gds      662.7649u   34.5733f  662.7649u   66.6372f  330.0423f    7.0451p
  gmb      768.2592f  745.0808f    1.4442p  1.765e-20    8.5874p   14.8154p
  cdtot     15.1224f    3.7250f   16.6326f    1.5754f    5.8708f    6.7565f
  cgtot     10.2469f    2.8395f   10.2469f    6.1666f    5.5185f    3.8875f
  cstot      3.0343f  501.1066a    3.0343f    1.5754f    1.1011f    1.1012f
  cbtot     13.3341f    5.2684f   14.8443f    3.1180f    8.5453f    7.5033f
  cgs        4.6535f  309.8869a    4.6535f    1.5639f  675.6863a  956.2532a
  cgd        4.8198f  485.1763a    4.8198f    1.4847f    1.0672f    1.0833f



 subckt                                                                    
 element  0:m1138    0:m1139    0:m1140    0:m1141    0:m1142    0:m1143   
 model    0:cmosptt  0:cmosptt  0:cmosntt  0:cmosntt  0:cmosptt  0:cmosptt 
 region       Linear     Linear     Cutoff     Cutoff     Linear     Cutoff
  id        -4.4214p    4.4214p  371.0568f  1.046e-28   11.2745p  -19.2256f
  ibs        0.         0.         0.         0.         0.         0.     
  ibd        0.         0.         0.         0.         0.         0.     
  vgs       -5.0000    -5.0000     0.        -1.1572    -5.0000    -8.1412n
  vds       -6.6711n    6.6711n    1.1572     3.8428     8.1412n   -4.0542 
  vbs        0.         6.6711n    0.        -1.1572     8.1412n    0.     
  vth     -855.7622m -855.7622m  602.6323m  792.3957m -849.8368m -830.2152m
  vdsat     -2.3271    -2.3271    43.6805m   48.1266m   -2.3353   -49.0796m
  vod       -4.1442    -4.1442  -602.6323m   -1.9496    -4.1502   830.2152m
  beta     228.3604u  228.3604u    1.0209m    1.0021m  474.7926u  768.9727u
  gam eff  536.7083m  536.7083m    1.0081     1.1016   538.0631m  538.0631m
  gm       565.6431f  565.6431f    8.6326p  2.680e-27    1.4186p  433.9750f
  gds      662.7649u  662.7649u  125.1505f    0.         1.3849m    5.0062f
  gmb      336.9207f  336.9207f    3.2954p  5.689e-28  832.6365f  172.7248f
  cdtot     16.6326f    3.0343f    6.8342f    6.7565f    6.4111f   11.0749f
  cgtot     10.2469f   10.2469f    5.5650f    5.3280f   21.0239f   12.3229f
  cstot      3.0343f    4.2762f    1.1011f    1.1011f   29.8321f    3.3154f
  cbtot     14.8443f    2.4879f    9.5565f    9.1899f   25.5637f   13.6865f
  cgs        4.6535f    4.8198f  674.9384a  726.1975a   10.1436f    3.1042f
  cgd        4.8198f    4.6535f    1.0666f    1.0674f    9.7725f    3.2917f



 subckt                                                                    
 element  0:m1144    0:m1145    0:m1146    0:m1147    0:m1148    0:m1149   
 model    0:cmosptt  0:cmosptt  0:cmosptt  0:cmosptt  0:cmosntt  0:cmosntt 
 region       Cutoff     Cutoff     Linear     Linear     Cutoff     Linear
  id       -11.2359p   24.3732f    5.0244p  -11.2745p   -1.2745p   27.2061p
  ibs        0.         0.         0.         0.         0.         0.     
  ibd        0.         0.         0.         0.         0.         0.     
  vgs     -945.8377m    5.0000    -5.0000    -5.0000    -5.0000     5.0000 
  vds     -945.8376m    5.0000     3.6281n   -8.1412n   -5.0000    15.5211n
  vbs        4.0542     5.0000     3.6281n    0.        -5.0000     0.     
  vth       -1.3896  -825.6375m -849.8368m -849.8368m  554.4367m  617.1463m
  vdsat    -57.3138m  -49.0787m   -2.3353    -2.3353    43.6776m    1.4338 
  vod      443.8004m    5.8256    -4.1502    -4.1502    -5.5544     4.3829 
  beta     625.0260u  770.1461u  474.7926u  474.7926u    1.0231m  839.4280u
  gam eff  513.6333m  538.0631m  538.0631m  538.0631m    1.0081     1.0081 
  gm       300.3617p  550.1700f  632.1888f    1.4186p   29.6432p    1.7887p
  gds        5.4659p    5.9001f    1.3849m    1.3849m  538.1445f    1.7528m
  gmb       26.7896p  218.1145f  371.0578f  832.6365f   10.9960p    1.3871p
  cdtot     18.6717f   18.4727f    6.4111f   29.8321f    1.1011f   11.1049f
  cgtot      8.7336f   12.3032f   21.0239f   21.0239f    5.5088f    9.9552f
  cstot      3.3154f    3.3154f    8.9634f    6.4111f    6.7565f    2.5830f
  cbtot     17.5216f   21.0677f    4.6951f   25.5637f    9.4210f   10.6453f
  cgs        3.2660f    3.2918f   10.1436f    9.7725f    1.0673f    3.6333f
  cgd        3.3023f    3.1010f    9.7725f   10.1436f  675.8304a    4.5925f



 subckt                                                                    
 element  0:m1150    0:m1151    0:m1152    0:m1153    0:m1154    0:m1155   
 model    0:cmosntt  0:cmosntt  0:cmosntt  0:cmosntt  0:cmosptt  0:cmosptt 
 region       Linear     Cutoff     Cutoff     Cutoff     Linear     Cutoff
  id        27.2061p -1.271e-19 -1.026e-19    1.2745p   11.2745p   -7.8513f
  ibs        0.         0.         0.         0.         0.         0.     
  ibd        0.         0.         0.         0.         0.         0.     
  vgs        5.0000   -31.0421n  -13.8700n    0.        -5.0000   -15.2117n
  vds       15.5211n  -17.1722n  -13.8700n    5.0000     8.1412n   -4.0183 
  vbs      -15.5211n  -31.0421n  -13.8700n    0.         8.1412n    0.     
  vth      617.1463m  617.1463m  617.1463m  554.4367m -849.8368m -836.3141m
  vdsat      1.4338    43.6814m   43.6814m   43.6776m   -2.3353   -48.7758m
  vod        4.3829  -617.1463m -617.1463m -554.4367m   -4.1502   836.3141m
  beta     839.4280u    1.0202m    1.0202m    1.0231m  474.7926u  364.6571u
  gam eff    1.0081     1.0081     1.0081     1.0081   538.0631m  536.7083m
  gm         1.7887p    2.9567a    2.3881a   29.6432p    1.4186p  177.2270f
  gds        1.7528m    7.4005p    7.4005p  538.1445f    1.3849m    2.0505f
  gmb        1.3871p    1.1544a  9.324e-19   10.9960p  832.6365f   71.0082f
  cdtot     17.9075f    7.9344f    1.1011f    6.7565f    6.4111f    6.2970f
  cgtot      9.9552f    5.5825f    5.5825f    5.5088f   21.0239f    6.1250f
  cstot      2.5830f    1.1011f    1.1011f    1.1011f   29.8321f    1.5754f
  cbtot     17.4478f   10.6749f    3.8415f    9.4210f   25.5637f    7.8045f
  cgs        3.6333f    1.0664f    1.0664f  675.8304a   10.1436f    1.4781f
  cgd        4.5925f  674.6294a  674.6294a    1.0673f    9.7725f    1.5641f



 subckt                                                                    
 element  0:m1156    0:m1157    0:m1158    0:m1159    0:m1160    0:m1161   
 model    0:cmosptt  0:cmosptt  0:cmosptt  0:cmosptt  0:cmosptt  0:cmosptt 
 region       Cutoff     Cutoff     Cutoff     Linear     Cutoff     Cutoff
  id       -11.0811p    0.         3.3735f  -10.0818p   -3.3735f    0.     
  ibs        0.         0.         0.         0.         0.         0.     
  ibd        0.         0.         0.         0.         0.         0.     
  vgs     -981.6865m    5.0000     1.2492    -5.0000   -15.2117n    1.2492 
  vds     -981.6865m    3.7508     1.2492   -15.2117n   -1.2492    -3.7508 
  vbs        4.0183     5.0000     1.2492     0.         0.         1.2492 
  vth       -1.3981    -1.0743  -849.7164m -855.7622m -849.7164m   -1.0743 
  vdsat    -57.0009m  -53.0135m  -48.7786m   -2.3271   -48.7786m  -53.0135m
[...]
   45.60000n    0.      
   45.65000n    0.      
   45.70000n    0.      
   45.75000n    0.      
   45.80000n    0.      
   45.85000n    0.      
   45.90000n    0.      
   45.95000n    0.      
   46.00000n    0.      
   46.05000n    0.      
   46.10000n    0.      
   46.15000n    0.      
   46.20000n    0.      
   46.25000n    0.      
   46.30000n    0.      
   46.35000n    0.      
   46.40000n    0.      
   46.45000n    0.      
   46.50000n    0.      
   46.55000n    0.      
   46.60000n    0.      
   46.65000n    0.      
   46.70000n    0.      
   46.75000n    0.      
   46.80000n    0.      
   46.85000n    0.      
   46.90000n    0.      
   46.95000n    0.      
   47.00000n    0.      
   47.05000n    0.      
   47.10000n    0.      
   47.15000n    0.      
   47.20000n    0.      
   47.25000n    0.      
   47.30000n    0.      
   47.35000n    0.      
   47.40000n    0.      
   47.45000n    0.      
   47.50000n    0.      
   47.55000n    0.      
   47.60000n    0.      
   47.65000n    0.      
   47.70000n    0.      
   47.75000n    0.      
   47.80000n    0.      
   47.85000n    0.      
   47.90000n    0.      
   47.95000n    0.      
   48.00000n    0.      
   48.05000n    0.      
   48.10000n    0.      
   48.15000n    0.      
   48.20000n    0.      
   48.25000n    0.      
   48.30000n    0.      
   48.35000n    0.      
   48.40000n    0.      
   48.45000n    0.      
   48.50000n    0.      
   48.55000n    0.      
   48.60000n    0.      
   48.65000n    0.      
   48.70000n    0.      
   48.75000n    0.      
   48.80000n    0.      
   48.85000n    0.      
   48.90000n    0.      
   48.95000n    0.      
   49.00000n    0.      
   49.05000n    0.      
   49.10000n    0.      
   49.15000n    0.      
   49.20000n    0.      
   49.25000n    0.      
   49.30000n    0.      
   49.35000n    0.      
   49.40000n    0.      
   49.45000n    0.      
   49.50000n    0.      
   49.55000n    0.      
   49.60000n    0.      
   49.65000n    0.      
   49.70000n    0.      
   49.75000n    0.      
   49.80000n    0.      
   49.85000n    0.      
   49.90000n    0.      
   49.95000n    0.      
   50.00000n  330.8722f 
   50.05000n    1.2500  
   50.10000n    2.5000  
   50.15000n    3.7500  
   50.20000n    5.0000  
   50.25000n    5.0000  
   50.30000n    5.0000  
   50.35000n    5.0000  
   50.40000n    5.0000  
   50.45000n    5.0000  
   50.50000n    5.0000  
   50.55000n    5.0000  
   50.60000n    5.0000  
   50.65000n    5.0000  
   50.70000n    5.0000  
   50.75000n    5.0000  
   50.80000n    5.0000  
   50.85000n    5.0000  
   50.90000n    5.0000  
   50.95000n    5.0000  
   51.00000n    5.0000  
   51.05000n    5.0000  
   51.10000n    5.0000  
   51.15000n    5.0000  
   51.20000n    5.0000  
   51.25000n    5.0000  
   51.30000n    5.0000  
   51.35000n    5.0000  
   51.40000n    5.0000  
   51.45000n    5.0000  
   51.50000n    5.0000  
   51.55000n    5.0000  
   51.60000n    5.0000  
   51.65000n    5.0000  
   51.70000n    5.0000  
   51.75000n    5.0000  
   51.80000n    5.0000  
   51.85000n    5.0000  
   51.90000n    5.0000  
   51.95000n    5.0000  
   52.00000n    5.0000  
   52.05000n    5.0000  
   52.10000n    5.0000  
   52.15000n    5.0000  
   52.20000n    5.0000  
   52.25000n    5.0000  
   52.30000n    5.0000  
   52.35000n    5.0000  
   52.40000n    5.0000  
   52.45000n    5.0000  
   52.50000n    5.0000  
   52.55000n    5.0000  
   52.60000n    5.0000  
   52.65000n    5.0000  
   52.70000n    5.0000  
   52.75000n    5.0000  
   52.80000n    5.0000  
   52.85000n    5.0000  
   52.90000n    5.0000  
   52.95000n    5.0000  
   53.00000n    5.0000  
   53.05000n    5.0000  
   53.10000n    5.0000  
   53.15000n    5.0000  
   53.20000n    5.0000  
   53.25000n    5.0000  
   53.30000n    5.0000  
   53.35000n    5.0000  
   53.40000n    5.0000  
   53.45000n    5.0000  
   53.50000n    5.0000  
   53.55000n    5.0000  
   53.60000n    5.0000  
   53.65000n    5.0000  
   53.70000n    5.0000  
   53.75000n    5.0000  
   53.80000n    5.0000  
   53.85000n    5.0000  
   53.90000n    5.0000  
   53.95000n    5.0000  
   54.00000n    5.0000  
   54.05000n    5.0000  
   54.10000n    5.0000  
   54.15000n    5.0000  
   54.20000n    5.0000  
   54.25000n    5.0000  
   54.30000n    5.0000  
   54.35000n    5.0000  
   54.40000n    5.0000  
   54.45000n    5.0000  
   54.50000n    5.0000  
   54.55000n    5.0000  
   54.60000n    5.0000  
   54.65000n    5.0000  
   54.70000n    5.0000  
   54.75000n    5.0000  
   54.80000n    5.0000  
   54.85000n    5.0000  
   54.90000n    5.0000  
   54.95000n    5.0000  
   55.00000n    5.0000  
   55.05000n    3.7500  
   55.10000n    2.5000  
   55.15000n    1.2500  
   55.20000n  120.7923f 
   55.25000n    0.      
   55.30000n    0.      
   55.35000n    0.      
   55.40000n    0.      
   55.45000n    0.      
   55.50000n    0.      
   55.55000n    0.      
   55.60000n    0.      
   55.65000n    0.      
   55.70000n    0.      
   55.75000n    0.      
   55.80000n    0.      
   55.85000n    0.      
   55.90000n    0.      
   55.95000n    0.      
   56.00000n    0.      
   56.05000n    0.      
   56.10000n    0.      
   56.15000n    0.      
   56.20000n    0.      
   56.25000n    0.      
   56.30000n    0.      
   56.35000n    0.      
   56.40000n    0.      
   56.45000n    0.      
   56.50000n    0.      
   56.55000n    0.      
   56.60000n    0.      
   56.65000n    0.      
   56.70000n    0.      
   56.75000n    0.      
   56.80000n    0.      
   56.85000n    0.      
   56.90000n    0.      
   56.95000n    0.      
   57.00000n    0.      
   57.05000n    0.      
   57.10000n    0.      
   57.15000n    0.      
   57.20000n    0.      
   57.25000n    0.      
   57.30000n    0.      
   57.35000n    0.      
   57.40000n    0.      
   57.45000n    0.      
   57.50000n    0.      
   57.55000n    0.      
   57.60000n    0.      
   57.65000n    0.      
   57.70000n    0.      
   57.75000n    0.      
   57.80000n    0.      
   57.85000n    0.      
   57.90000n    0.      
   57.95000n    0.      
   58.00000n    0.      
   58.05000n    0.      
   58.10000n    0.      
   58.15000n    0.      
   58.20000n    0.      
   58.25000n    0.      
   58.30000n    0.      
   58.35000n    0.      
   58.40000n    0.      
   58.45000n    0.      
   58.50000n    0.      
   58.55000n    0.      
   58.60000n    0.      
   58.65000n    0.      
   58.70000n    0.      
   58.75000n    0.      
   58.80000n    0.      
   58.85000n    0.      
   58.90000n    0.      
   58.95000n    0.      
   59.00000n    0.      
   59.05000n    0.      
   59.10000n    0.      
   59.15000n    0.      
   59.20000n    0.      
   59.25000n    0.      
   59.30000n    0.      
   59.35000n    0.      
   59.40000n    0.      
   59.45000n    0.      
   59.50000n    0.      
   59.55000n    0.      
   59.60000n    0.      
   59.65000n    0.      
   59.70000n    0.      
   59.75000n    0.      
   59.80000n    0.      
   59.85000n    0.      
   59.90000n    0.      
   59.95000n    0.      
   60.00000n  330.8722f 
   60.05000n    1.2500  
   60.10000n    2.5000  
   60.15000n    3.7500  
   60.20000n    5.0000  
   60.25000n    5.0000  
   60.30000n    5.0000  
   60.35000n    5.0000  
   60.40000n    5.0000  
   60.45000n    5.0000  
   60.50000n    5.0000  
   60.55000n    5.0000  
   60.60000n    5.0000  
   60.65000n    5.0000  
   60.70000n    5.0000  
   60.75000n    5.0000  
   60.80000n    5.0000  
   60.85000n    5.0000  
   60.90000n    5.0000  
   60.95000n    5.0000  
   61.00000n    5.0000  
   61.05000n    5.0000  
   61.10000n    5.0000  
   61.15000n    5.0000  
   61.20000n    5.0000  
   61.25000n    5.0000  
   61.30000n    5.0000  
   61.35000n    5.0000  
   61.40000n    5.0000  
   61.45000n    5.0000  
   61.50000n    5.0000  
   61.55000n    5.0000  
   61.60000n    5.0000  
   61.65000n    5.0000  
   61.70000n    5.0000  
   61.75000n    5.0000  
   61.80000n    5.0000  
   61.85000n    5.0000  
   61.90000n    5.0000  
   61.95000n    5.0000  
   62.00000n    5.0000  
   62.05000n    5.0000  
   62.10000n    5.0000  
   62.15000n    5.0000  
   62.20000n    5.0000  
   62.25000n    5.0000  
   62.30000n    5.0000  
   62.35000n    5.0000  
   62.40000n    5.0000  
   62.45000n    5.0000  
   62.50000n    5.0000  
   62.55000n    5.0000  
   62.60000n    5.0000  
   62.65000n    5.0000  
   62.70000n    5.0000  
   62.75000n    5.0000  
   62.80000n    5.0000  
   62.85000n    5.0000  
   62.90000n    5.0000  
   62.95000n    5.0000  
   63.00000n    5.0000  
   63.05000n    5.0000  
   63.10000n    5.0000  
   63.15000n    5.0000  
   63.20000n    5.0000  
   63.25000n    5.0000  
   63.30000n    5.0000  
   63.35000n    5.0000  
   63.40000n    5.0000  
   63.45000n    5.0000  
   63.50000n    5.0000  
   63.55000n    5.0000  
   63.60000n    5.0000  
   63.65000n    5.0000  
   63.70000n    5.0000  
   63.75000n    5.0000  
   63.80000n    5.0000  
   63.85000n    5.0000  
   63.90000n    5.0000  
   63.95000n    5.0000  
   64.00000n    5.0000  
   64.05000n    5.0000  
   64.10000n    5.0000  
   64.15000n    5.0000  
   64.20000n    5.0000  
   64.25000n    5.0000  
   64.30000n    5.0000  
   64.35000n    5.0000  
   64.40000n    5.0000  
   64.45000n    5.0000  
   64.50000n    5.0000  
   64.55000n    5.0000  
   64.60000n    5.0000  
   64.65000n    5.0000  
   64.70000n    5.0000  
   64.75000n    5.0000  
   64.80000n    5.0000  
   64.85000n    5.0000  
   64.90000n    5.0000  
   64.95000n    5.0000  
   65.00000n    5.0000  
   65.05000n    3.7500  
   65.10000n    2.5000  
   65.15000n    1.2500  
   65.20000n  285.9935f 
   65.25000n    0.      
   65.30000n    0.      
   65.35000n    0.      
   65.40000n    0.      
   65.45000n    0.      
   65.50000n    0.      
   65.55000n    0.      
   65.60000n    0.      
   65.65000n    0.      
   65.70000n    0.      
   65.75000n    0.      
   65.80000n    0.      
   65.85000n    0.      
   65.90000n    0.      
   65.95000n    0.      
   66.00000n    0.      
   66.05000n    0.      
   66.10000n    0.      
   66.15000n    0.      
   66.20000n    0.      
   66.25000n    0.      
   66.30000n    0.      
   66.35000n    0.      
   66.40000n    0.      
   66.45000n    0.      
   66.50000n    0.      
   66.55000n    0.      
   66.60000n    0.      
   66.65000n    0.      
   66.70000n    0.      
   66.75000n    0.      
   66.80000n    0.      
   66.85000n    0.      
   66.90000n    0.      
   66.95000n    0.      
   67.00000n    0.      
   67.05000n    0.      
   67.10000n    0.      
   67.15000n    0.      
   67.20000n    0.      
   67.25000n    0.      
   67.30000n    0.      
   67.35000n    0.      
   67.40000n    0.      
   67.45000n    0.      
   67.50000n    0.      
   67.55000n    0.      
   67.60000n    0.      
   67.65000n    0.      
   67.70000n    0.      
   67.75000n    0.      
   67.80000n    0.      
   67.85000n    0.      
   67.90000n    0.      
   67.95000n    0.      
   68.00000n    0.      
   68.05000n    0.      
   68.10000n    0.      
   68.15000n    0.      
   68.20000n    0.      
   68.25000n    0.      
   68.30000n    0.      
   68.35000n    0.      
   68.40000n    0.      
   68.45000n    0.      
   68.50000n    0.      
   68.55000n    0.      
   68.60000n    0.      
   68.65000n    0.      
   68.70000n    0.      
   68.75000n    0.      
   68.80000n    0.      
   68.85000n    0.      
   68.90000n    0.      
   68.95000n    0.      
   69.00000n    0.      
   69.05000n    0.      
   69.10000n    0.      
   69.15000n    0.      
   69.20000n    0.      
   69.25000n    0.      
   69.30000n    0.      
   69.35000n    0.      
   69.40000n    0.      
   69.45000n    0.      
   69.50000n    0.      
   69.55000n    0.      
   69.60000n    0.      
   69.65000n    0.      
   69.70000n    0.      
   69.75000n    0.      
   69.80000n    0.      
   69.85000n    0.      
   69.90000n    0.      
   69.95000n    0.      
   70.00000n  661.7445f 
   70.05000n    1.2500  
   70.10000n    2.5000  
   70.15000n    3.7500  
   70.20000n    5.0000  
   70.25000n    5.0000  
   70.30000n    5.0000  
   70.35000n    5.0000  
   70.40000n    5.0000  
   70.45000n    5.0000  
   70.50000n    5.0000  
   70.55000n    5.0000  
   70.60000n    5.0000  
   70.65000n    5.0000  
   70.70000n    5.0000  
   70.75000n    5.0000  
   70.80000n    5.0000  
   70.85000n    5.0000  
   70.90000n    5.0000  
   70.95000n    5.0000  
   71.00000n    5.0000  
   71.05000n    5.0000  
   71.10000n    5.0000  
   71.15000n    5.0000  
   71.20000n    5.0000  
   71.25000n    5.0000  
   71.30000n    5.0000  
   71.35000n    5.0000  
   71.40000n    5.0000  
   71.45000n    5.0000  
   71.50000n    5.0000  
   71.55000n    5.0000  
   71.60000n    5.0000  
   71.65000n    5.0000  
   71.70000n    5.0000  
   71.75000n    5.0000  
   71.80000n    5.0000  
   71.85000n    5.0000  
   71.90000n    5.0000  
   71.95000n    5.0000  
   72.00000n    5.0000  
   72.05000n    5.0000  
   72.10000n    5.0000  
   72.15000n    5.0000  
   72.20000n    5.0000  
   72.25000n    5.0000  
   72.30000n    5.0000  
   72.35000n    5.0000  
   72.40000n    5.0000  
   72.45000n    5.0000  
   72.50000n    5.0000  
   72.55000n    5.0000  
   72.60000n    5.0000  
   72.65000n    5.0000  
   72.70000n    5.0000  
   72.75000n    5.0000  
   72.80000n    5.0000  
   72.85000n    5.0000  
   72.90000n    5.0000  
   72.95000n    5.0000  
   73.00000n    5.0000  
   73.05000n    5.0000  
   73.10000n    5.0000  
   73.15000n    5.0000  
   73.20000n    5.0000  
   73.25000n    5.0000  
   73.30000n    5.0000  
   73.35000n    5.0000  
   73.40000n    5.0000  
   73.45000n    5.0000  
   73.50000n    5.0000  
   73.55000n    5.0000  
   73.60000n    5.0000  
   73.65000n    5.0000  
   73.70000n    5.0000  
   73.75000n    5.0000  
   73.80000n    5.0000  
   73.85000n    5.0000  
   73.90000n    5.0000  
   73.95000n    5.0000  
   74.00000n    5.0000  
   74.05000n    5.0000  
   74.10000n    5.0000  
   74.15000n    5.0000  
   74.20000n    5.0000  
   74.25000n    5.0000  
   74.30000n    5.0000  
   74.35000n    5.0000  
   74.40000n    5.0000  
   74.45000n    5.0000  
   74.50000n    5.0000  
   74.55000n    5.0000  
   74.60000n    5.0000  
   74.65000n    5.0000  
   74.70000n    5.0000  
   74.75000n    5.0000  
   74.80000n    5.0000  
   74.85000n    5.0000  
   74.90000n    5.0000  
   74.95000n    5.0000  
   75.00000n    5.0000  
   75.05000n    3.7500  
   75.10000n    2.5000  
   75.15000n    1.2500  
   75.20000n  617.2840f 
   75.25000n    0.      
   75.30000n    0.      
   75.35000n    0.      
   75.40000n    0.      
   75.45000n    0.      
   75.50000n    0.      
   75.55000n    0.      
   75.60000n    0.      
   75.65000n    0.      
   75.70000n    0.      
   75.75000n    0.      
   75.80000n    0.      
   75.85000n    0.      
   75.90000n    0.      
   75.95000n    0.      
   76.00000n    0.      
   76.05000n    0.      
   76.10000n    0.      
   76.15000n    0.      
   76.20000n    0.      
   76.25000n    0.      
   76.30000n    0.      
   76.35000n    0.      
   76.40000n    0.      
   76.45000n    0.      
   76.50000n    0.      
   76.55000n    0.      
   76.60000n    0.      
   76.65000n    0.      
   76.70000n    0.      
   76.75000n    0.      
   76.80000n    0.      
   76.85000n    0.      
   76.90000n    0.      
   76.95000n    0.      
   77.00000n    0.      
   77.05000n    0.      
   77.10000n    0.      
   77.15000n    0.      
   77.20000n    0.      
   77.25000n    0.      
   77.30000n    0.      
   77.35000n    0.      
   77.40000n    0.      
   77.45000n    0.      
   77.50000n    0.      
   77.55000n    0.      
   77.60000n    0.      
   77.65000n    0.      
   77.70000n    0.      
   77.75000n    0.      
   77.80000n    0.      
   77.85000n    0.      
   77.90000n    0.      
   77.95000n    0.      
   78.00000n    0.      
   78.05000n    0.      
   78.10000n    0.      
   78.15000n    0.      
   78.20000n    0.      
   78.25000n    0.      
   78.30000n    0.      
   78.35000n    0.      
   78.40000n    0.      
   78.45000n    0.      
   78.50000n    0.      
   78.55000n    0.      
   78.60000n    0.      
   78.65000n    0.      
   78.70000n    0.      
   78.75000n    0.      
   78.80000n    0.      
   78.85000n    0.      
   78.90000n    0.      
   78.95000n    0.      
   79.00000n    0.      
   79.05000n    0.      
   79.10000n    0.      
   79.15000n    0.      
   79.20000n    0.      
   79.25000n    0.      
   79.30000n    0.      
   79.35000n    0.      
   79.40000n    0.      
   79.45000n    0.      
   79.50000n    0.      
   79.55000n    0.      
   79.60000n    0.      
   79.65000n    0.      
   79.70000n    0.      
   79.75000n    0.      
   79.80000n    0.      
   79.85000n    0.      
   79.90000n    0.      
   79.95000n    0.      
   80.00000n    0.      
y
 vmax=   failed  from=   failed     to=   failed
 vmin=   failed  from=   failed     to=   failed
   trise= failed                         measure parameter failed
   tfall= failed                         measure parameter failed
  **warning** (prjMagic.sp:1923) Trigger event is undefined. Please specify a valid event. Measure failed.
   tplh= failed                          trig= not found
   tphl= failed                          trig= not found
 avgpower=   9.1562m  from=   0.             to=  80.0000n
 peakpwr= 180.2823m    at=   5.1587n
             from=   0.            to=  80.0000n

          ***** job concluded
1****** HSPICE -- K-2015.06 linux64 (May 25 2015) ******                        
 ******  
 *********************************************************

 ****** job statistics summary tnom=  25.000 temp=  70.000 ******
  
  
 ******  Machine Information  ******
 CPU:
 model name	: Intel(R) Xeon(R) CPU E5-4617 0 @ 2.90GHz
 cpu MHz	: 1200.000
  
 OS:
 Linux version 2.6.32-573.3.1.el6.x86_64 (mockbuild@x86-029.build.eng.bos.redhat.com) (gcc version 4.4.7 20120313 (Red Hat 4.4.7-16) (GCC) ) #1 SMP Mon Aug 10 09:44:54 EDT 2015


  ******  HSPICE Threads Information  ******

  Command Line Threads Count :     1
  Available CPU Count        :    12
  Actual Threads Count       :     1


  ****** Statistics of Ignored Elements ******
  Capacitors      :       1

  ******  Circuit Statistics  ******
  # nodes       =     353 # elements   =     858
  # resistors   =       0 # capacitors =     226 # inductors   =       0
  # mutual_inds =       0 # vccs       =       0 # vcvs        =       0
  # cccs        =       0 # ccvs       =       0 # volt_srcs   =      18
  # curr_srcs   =       0 # diodes     =       0 # bjts        =       0
  # jfets       =       0 # mosfets    =     614 # U elements  =       0
  # T elements  =       0 # W elements =       0 # B elements  =       0
  # S elements  =       0 # P elements =       0 # va device   =       0
  # vector_srcs =       0 # N elements =       0


  ******  Runtime Statistics (seconds)  ******

  analysis           time    # points   tot. iter  conv.iter
  op point           0.12           1         110
  dc sweep           0.74          51         210
  transient          2.35        1601        3502        1057 rev=        17
  readin             0.07
  errchk             0.01
  setup              0.01
  output             0.00


           peak memory used        205.76 megabytes
           total cpu time            3.30 seconds
           total elapsed time        3.24 seconds
           job started at     13:19:50 12/02/2015
           job ended   at     13:19:53 12/02/2015


 lic: Release hspice token(s) 
 lic: total license checkout elapse time:        0.27(s)
